                                   MODFLOW 6
                U.S. GEOLOGICAL SURVEY MODULAR HYDROLOGIC MODEL
                          GROUNDWATER FLOW MODEL (GWF)
                        VERSION 6.4.1 Release 12/09/2022

   MODFLOW 6 compiled Apr 12 2023 19:02:29 with Intel(R) Fortran Intel(R) 64
   Compiler Classic for applications running on Intel(R) 64, Version 2021.7.0
                             Build 20220726_000000

This software has been approved for release by the U.S. Geological 
Survey (USGS). Although the software has been subjected to rigorous 
review, the USGS reserves the right to update the software as needed 
pursuant to further analysis and review. No warranty, expressed or 
implied, is made by the USGS or the U.S. Government as to the 
functionality of the software and related material nor shall the 
fact of release constitute any such warranty. Furthermore, the 
software is released on condition that neither the USGS nor the U.S. 
Government shall be held liable for any damages resulting from its 
authorized or unauthorized use. Also refer to the USGS Water 
Resources Software User Rights Notice for complete use, copyright, 
and distribution information.


As a work of the United States Government, this USGS product is 
in the public domain within the United States. You can copy, 
modify, distribute, and perform the work, even for commercial 
purposes, all without asking permission. Additionally, USGS 
waives copyright and related rights in the work worldwide 
through CC0 1.0 Universal Public Domain Dedication 
(https://creativecommons.org/publicdomain/zero/1.0/).

The following GNU Lesser General Public License (LGPL) libraries
are used in this USGS product:

    SPARSKIT version 2.0
      ilut, luson, and qsplit 
      (https://www-users.cse.umn.edu/~saad/software/SPARSKIT/)

    RCM - Reverse Cuthill McKee Ordering
      (https://people.math.sc.edu/Burkardt/f_src/rcm/rcm.html)

    BLAS - Basic Linear Algebra Subprograms Level 1
      (https://people.math.sc.edu/Burkardt/f_src/blas1_d/blas1_d.html)

    SPARSEKIT - Sparse Matrix Utility Package
      amux, dperm, dvperm, rperm, and cperm
      (https://people.sc.fsu.edu/~jburkardt/f77_src/sparsekit/sparsekit.html)

The following BSD-3 License libraries are used in this USGS product:

    Modern Fortran DAG Library
      Copyright (c) 2018, Jacob Williams
      All rights reserved.
      (https://github.com/jacobwilliams/daglib)

MODFLOW 6 compiler options: -Ilinux/obj_mf6 -O2 -no-heap-arrays -fpe0
-traceback -fpp -module linux/mod_mf6/ -c -o linux/obj_mf6/compilerversion.o

System command used to initiate simulation:
mf6

MODFLOW was compiled using uniform precision.

Real Variables
  KIND: 8
  TINY (smallest non-zero value):    2.225074-308
  HUGE (largest value):    1.797693+308
  PRECISION: 15
  SIZE IN BITS: 64

Integer Variables
  KIND: 4
  HUGE (largest value): 2147483647
  SIZE IN BITS: 32

Long Integer Variables
  KIND: 8
  HUGE (largest value): 9223372036854775807
  SIZE IN BITS: 64

Logical Variables
  KIND: 4
  SIZE IN BITS: 32
 

 OPENED test_model.dis
 FILE TYPE:DIS6                   UNIT 1005   STATUS:OLD                 
 FORMAT:FORMATTED              ACCESS:SEQUENTIAL          
 ACTION:READ                


 OPENED test_model.npf
 FILE TYPE:NPF6                   UNIT 1006   STATUS:OLD                 
 FORMAT:FORMATTED              ACCESS:SEQUENTIAL          
 ACTION:READ                


 OPENED test_model.ic
 FILE TYPE:IC6                    UNIT 1007   STATUS:OLD                 
 FORMAT:FORMATTED              ACCESS:SEQUENTIAL          
 ACTION:READ                


 OPENED test_model.sto
 FILE TYPE:STO6                   UNIT 1008   STATUS:OLD                 
 FORMAT:FORMATTED              ACCESS:SEQUENTIAL          
 ACTION:READ                


 OPENED test_model.chd
 FILE TYPE:CHD6                   UNIT 1009   STATUS:OLD                 
 FORMAT:FORMATTED              ACCESS:SEQUENTIAL          
 ACTION:READ                


 OPENED test_model.evt
 FILE TYPE:EVT6                   UNIT 1010   STATUS:OLD                 
 FORMAT:FORMATTED              ACCESS:SEQUENTIAL          
 ACTION:READ                


 OPENED test_model.oc
 FILE TYPE:OC6                    UNIT 1011   STATUS:OLD                 
 FORMAT:FORMATTED              ACCESS:SEQUENTIAL          
 ACTION:READ                


 OPENED test_model.rch
 FILE TYPE:RCH6                   UNIT 1012   STATUS:OLD                 
 FORMAT:FORMATTED              ACCESS:SEQUENTIAL          
 ACTION:READ                


 OPENED test_model.riv
 FILE TYPE:RIV6                   UNIT 1013   STATUS:OLD                 
 FORMAT:FORMATTED              ACCESS:SEQUENTIAL          
 ACTION:READ                


 OPENED test_model.wel
 FILE TYPE:WEL6                   UNIT 1014   STATUS:OLD                 
 FORMAT:FORMATTED              ACCESS:SEQUENTIAL          
 ACTION:READ                


 DIS -- STRUCTURED GRID DISCRETIZATION PACKAGE, VERSION 2 : 3/27/2014 - INPUT READ FROM UNIT 1005

 Loading input for TEST_MODEL/DIS
 # File generated by Flopy version 3.3.6 on 07/14/2023 at 11:25:15.
   NLAY = 2
   NROW = 100
   NCOL = 250
   DELR = 20.00000000000000
   DELC = 20.00000000000000
   TOP = 15.00000000000000
   BOTM = variable 3D double precision array ranging from .000000000000000 to 7.500000000000000
   IDOMAIN = variable 3D integer array ranging from 0 to 1
 Loading input complete...


 NPF -- NODE PROPERTY FLOW PACKAGE, VERSION 1, 3/30/2015 INPUT READ FROM UNIT 1006

 Loading input for TEST_MODEL/NPF
 # File generated by Flopy version 3.3.6 on 07/14/2023 at 11:25:15.
   IPAKCB = 1
   ISAVSPDIS = 1
   ICELLTYPE = 1
   K = variable 1D double precision array ranging from 3.358851650000000 to 86400.00000000000
 Loading input complete...

 Setting Discretization Options
    Model length unit [0=UND, 1=FEET, 2=METERS, 3=CENTIMETERS] set as 0
 End Setting Discretization Options

 Setting Discretization Dimensions
    NLAY = 2
    NROW = 100
    NCOL = 250
 End Setting Discretization Dimensions

 Setting Discretization Griddata
    DELR set from input file
    DELC set from input file
    TOP set from input file
    BOTM set from input file
    IDOMAIN set from input file
 End Setting Discretization Griddata


 The specified IDOMAIN results in a reduced number of cells.
 Number of user nodes: 50000
 Number of nodes in solution: 29768


 Setting NPF Options
    Cell-by-cell flow information will be saved to binary file whenever ICBCFL is not zero.
    Specific discharge will be calculated at cell centers and written to DATA-SPDIS in budget file when requested.
 End Setting NPF Options

 Setting NPF Griddata
    ICELLTYPE set from input file
    K set from input file
    K33 not provided.  Setting K33 = K.
    K22 not provided.  Setting K22 = K.
 End Setting NPF Griddata


 WEL   -- WEL PACKAGE, VERSION 8, 2/22/2014 INPUT READ FROM UNIT 1014
 # File generated by Flopy version 3.3.6 on 07/14/2023 at 11:25:16.

 PROCESSING WEL OPTIONS
 END OF WEL OPTIONS

 PROCESSING WEL DIMENSIONS
    MAXBOUND =       2
 END OF WEL DIMENSIONS

 RIV   -- RIV PACKAGE, VERSION 8, 2/22/2014 INPUT READ FROM UNIT 1013
 # File generated by Flopy version 3.3.6 on 07/14/2023 at 11:25:16.

 PROCESSING RIV OPTIONS
 END OF RIV OPTIONS

 PROCESSING RIV DIMENSIONS
    MAXBOUND =     344
 END OF RIV DIMENSIONS

 RCH   -- RCH PACKAGE, VERSION 8, 2/22/2014 INPUT READ FROM UNIT 1012
 # File generated by Flopy version 3.3.6 on 07/14/2023 at 11:25:16.

 PROCESSING RCH OPTIONS
 END OF RCH OPTIONS

 PROCESSING RCH DIMENSIONS
    MAXBOUND =   14884
 END OF RCH DIMENSIONS

 EVT   -- EVT PACKAGE, VERSION 8, 2/22/2014 INPUT READ FROM UNIT 1010
 # File generated by Flopy version 3.3.6 on 07/14/2023 at 11:25:16.

 PROCESSING EVT OPTIONS
 END OF EVT OPTIONS

 PROCESSING EVT DIMENSIONS
    MAXBOUND =       1
    NSEG = 1
 END OF EVT DIMENSIONS

 CHD   -- CHD PACKAGE, VERSION 8, 2/22/2014 INPUT READ FROM UNIT 1009
 # File generated by Flopy version 3.3.6 on 07/14/2023 at 11:25:16.

 PROCESSING CHD OPTIONS
 END OF CHD OPTIONS

 PROCESSING CHD DIMENSIONS
    MAXBOUND =      62
 END OF CHD DIMENSIONS

 IC -- INITIAL CONDITIONS PACKAGE, VERSION 8, 3/28/2015 INPUT READ FROM UNIT 1007
 # File generated by Flopy version 3.3.6 on 07/14/2023 at 11:25:15.
 PROCESSING GRIDDATA
 END PROCESSING GRIDDATA

 STO -- STORAGE PACKAGE, VERSION 1, 5/19/2014 INPUT READ FROM UNIT 1008


 # File generated by Flopy version 3.3.6 on 07/14/2023 at 11:25:15.
 PROCESSING STORAGE OPTIONS
    CELL-BY-CELL FLOW INFORMATION WILL BE SAVED TO BINARY FILE WHENEVER ICBCFL IS NOT ZERO.
 END OF STORAGE OPTIONS
 PROCESSING GRIDDATA
 END PROCESSING GRIDDATA
    BINARY GRID INFORMATION WILL BE WRITTEN TO:
      UNIT NUMBER: 1016
      FILE NAME: /home/janek/Documents/Python/Flopy/Current/BaseModel_models/MODFLOW 6/test/test_model.dis.grb

 OPENED /home/janek/Documents/Python/Flopy/Current/BaseModel_models/MODFLOW 6/test/test_model.dis.grb
 FILE TYPE:DATA(BINARY)   UNIT 1016   STATUS:REPLACE             
 FORMAT:UNFORMATTED            ACCESS:STREAM              
 ACTION:READWRITE           

      THE LAST TIME STEP WILL BE PRINTED
      THE LAST TIME STEP WILL BE PRINTED
 # File generated by Flopy version 3.3.6 on 07/14/2023 at 11:25:16.

 PROCESSING OC OPTIONS

    BUDGET INFORMATION WILL BE WRITTEN TO:
      UNIT NUMBER: 1017
      FILE NAME: sto.bud

 OPENED sto.bud
 FILE TYPE:DATA(BINARY)   UNIT 1017   STATUS:REPLACE             
 FORMAT:UNFORMATTED            ACCESS:STREAM              
 ACTION:READWRITE           

    HEAD INFORMATION WILL BE WRITTEN TO:
      UNIT NUMBER: 1018
      FILE NAME: sto.hds

 OPENED sto.hds
 FILE TYPE:DATA(BINARY)   UNIT 1018   STATUS:REPLACE             
 FORMAT:UNFORMATTED            ACCESS:STREAM              
 ACTION:READWRITE           

 END OF OC OPTIONS

start timestep kper="1" kstp="1" mode="normal"


 BEGIN READING OUTPUT CONTROL FOR STRESS PERIOD 1
      ALL TIME STEPS WILL BE SAVED
      ALL TIME STEPS WILL BE SAVED

 END READING OUTPUT CONTROL FOR STRESS PERIOD 1


 STRESS PERIOD 1 IS TRANSIENT


 REUSING EVTS FROM LAST STRESS PERIOD

 SLN_1 INNER ITERATION SUMMARY
 --------------------------------------------------------------------------------------------------------------------------------------
      TOTAL      OUTER      INNER                                                            MAXIMUM                                   
  ITERATION  ITERATION  ITERATION  MAXIMUM CHANGE      MAXIMUM CHANGE MODEL-(CELLID)        RESIDUAL    MAXIMUM RESIDUAL MODEL-(CELLID)
 --------------------------------------------------------------------------------------------------------------------------------------
          1          1          1  2.25128282E-02                    1_GWF-(2,32,59)      -19.311702                     1_GWF-(1,47,2)
          2          1          2  7.55519622E-02                    1_GWF-(2,36,64)       7.5973858                     1_GWF-(1,48,2)
          3          1          3 -3.58175355E-02                    1_GWF-(1,32,61)      -21.825137                    1_GWF-(1,55,72)
          4          1          4 -3.23497461E-02                    1_GWF-(1,33,63)       32.982594                    1_GWF-(1,55,72)
          5          1          5 -2.74287402E-02                    1_GWF-(1,37,62)      -50.065977                    1_GWF-(1,55,72)
          6          1          6 -2.40310454E-02                    1_GWF-(1,38,63)       25.192882                    1_GWF-(1,55,72)
          7          1          7 -2.24242962E-02                    1_GWF-(2,40,65)      -11.041863                    1_GWF-(1,55,72)
          8          1          8 -1.82577888E-02                    1_GWF-(1,32,74)      -14.900025                   1_GWF-(1,29,191)
          9          1          9 -1.42626149E-02                    1_GWF-(2,33,77)       20.795288                   1_GWF-(1,29,191)
         10          1         10 -1.50078050E-02                   1_GWF-(1,29,191)      -9.1535384                   1_GWF-(1,29,191)
         11          1         11 -1.21598952E-02                    1_GWF-(1,36,81)       7.4581642                    1_GWF-(1,55,72)
         12          1         12 -8.22789893E-03                    1_GWF-(1,38,82)       9.9873602                   1_GWF-(1,29,191)
         13          1         13 -8.86347545E-03                   1_GWF-(1,29,191)      -10.917237                   1_GWF-(1,29,191)
         14          1         14  6.84285304E-03                    1_GWF-(2,37,79)      -3.9873000                     1_GWF-(1,49,3)
         15          1         15  8.06116850E-03                    1_GWF-(2,38,81)       7.0423825                   1_GWF-(1,29,191)
         16          1         16  6.57342728E-03                    1_GWF-(2,41,81)      -7.0443560                   1_GWF-(1,29,191)
         17          1         17  5.20430342E-03                    1_GWF-(1,42,82)      -3.5001391                     1_GWF-(1,48,3)
         18          1         18  3.80584322E-03                    1_GWF-(2,29,76)       5.8825050                   1_GWF-(1,29,191)
         19          1         19 -3.43241657E-03                    1_GWF-(1,41,81)       2.4708439                     1_GWF-(1,48,3)
         20          1         20 -3.29554298E-03                    1_GWF-(2,43,81)       2.4135729                    1_GWF-(1,55,72)
         21          1         21 -2.11405728E-03                    1_GWF-(2,44,82)       2.8568170                   1_GWF-(1,29,191)
         22          1         22  1.61908184E-03                    1_GWF-(2,41,80)       1.3834799                     1_GWF-(1,47,2)
         23          1         23  1.76024976E-03                    1_GWF-(2,42,81)      -2.3225750                   1_GWF-(1,29,191)
         24          1         24  1.69782687E-03                    1_GWF-(2,43,82)      -1.1901367                     1_GWF-(1,47,2)
         25          1         25  1.30838856E-03                    1_GWF-(2,45,82)       1.8032195                   1_GWF-(1,29,191)
         26          1         26 -9.71134059E-04                    1_GWF-(1,60,46)     -0.95393827                     1_GWF-(1,48,3)
         27          1         27 -8.69519093E-04                    1_GWF-(2,83,58)      -1.5477362                   1_GWF-(1,29,191)
         28          1         28 -7.88691083E-04                    1_GWF-(1,84,60)      0.92508848                     1_GWF-(1,48,3)
         29          1         29  7.16796783E-04                    1_GWF-(2,29,50)       1.1820005                   1_GWF-(1,29,191)
         30          1         30  7.15278924E-04                    1_GWF-(1,29,50)      0.57000258                   1_GWF-(1,29,191)
         31          2          1  1.52900574E-03                    1_GWF-(1,55,72)       1.6874063                    1_GWF-(1,55,72)
         32          2          2  1.42711824E-03                    1_GWF-(1,55,73)      -2.3218679                    1_GWF-(1,55,72)
         33          2          3  1.56236579E-03                    1_GWF-(2,55,72)      0.71417391                    1_GWF-(1,55,72)
         34          2          4  6.47666378E-04                    1_GWF-(1,53,71)      0.41639064                    1_GWF-(1,55,72)
         35          2          5  4.28875386E-04                    1_GWF-(2,52,76)     -0.37368080                    1_GWF-(1,55,72)
         36          2          6  3.43846524E-04                    1_GWF-(2,49,78)       1.0801235                    1_GWF-(1,55,72)
         37          2          7 -3.96524488E-04                    1_GWF-(1,55,72)     -0.75268959                    1_GWF-(1,55,72)
         38          2          8  3.53127819E-04                    1_GWF-(2,44,80)      0.31311631                    1_GWF-(1,55,72)
         39          2          9  2.45723467E-04                    1_GWF-(2,44,64)     -0.26177094                   1_GWF-(1,29,191)
         40          2         10 -2.03943184E-04                   1_GWF-(1,30,191)     -0.56649604                    1_GWF-(1,55,72)
         41          2         11 -2.18741027E-04                   1_GWF-(1,29,191)      0.38993718                    1_GWF-(1,55,72)
         42          2         12 -1.97813988E-04                    1_GWF-(1,43,78)     -0.17896515                     1_GWF-(1,47,4)
         43          2         13 -1.88493064E-04                   1_GWF-(1,30,191)     -0.36720698                    1_GWF-(1,55,72)
         44          2         14 -1.83985858E-04                   1_GWF-(1,29,191)      0.17860608                    1_GWF-(1,55,72)
         45          2         15  9.57890731E-05                    1_GWF-(2,58,49)     -0.16157759                   1_GWF-(1,29,191)
         46          2         16  1.28131217E-04                   1_GWF-(1,29,191)      0.14343275                   1_GWF-(1,29,191)
         47          2         17 -7.40460111E-05                    1_GWF-(1,48,92)      0.11347136                     1_GWF-(1,46,4)
         48          2         18  7.66323888E-05                   1_GWF-(1,30,191)     -0.15688079                   1_GWF-(1,29,191)
         49          2         19  7.57314773E-05                   1_GWF-(1,29,191)     -0.11110483                     1_GWF-(1,46,4)
         50          2         20  7.09771604E-05                   1_GWF-(1,29,191)      0.13511721                   1_GWF-(1,29,191)
         51          2         21  5.22876737E-05                   1_GWF-(1,30,191)  9.47810031E-02                     1_GWF-(1,46,3)
         52          2         22 -4.40480362E-05                   1_GWF-(1,41,100)     -0.10233728                   1_GWF-(1,29,191)
         53          2         23 -4.24479479E-05                   1_GWF-(1,42,101)  7.30349175E-02                     1_GWF-(1,47,5)
         54          2         24 -3.47238507E-05                   1_GWF-(2,42,102)  7.37116179E-02                   1_GWF-(1,29,191)
         55          2         25 -2.68726889E-05                   1_GWF-(2,44,104) -5.89901518E-02                     1_GWF-(1,47,4)
         56          2         26 -3.03071362E-05                   1_GWF-(1,29,191)  4.94675107E-02                     1_GWF-(1,46,3)
         57          2         27 -1.87295526E-05                     1_GWF-(1,45,4)  4.82394487E-02                     1_GWF-(1,46,4)
         58          2         28 -1.98051584E-05                   1_GWF-(1,30,191)  4.71331086E-02                     1_GWF-(1,47,4)
         59          2         29 -1.65050405E-05                   1_GWF-(1,30,191) -3.91488531E-02                     1_GWF-(1,46,3)
         60          2         30 -1.57270434E-05                    1_GWF-(2,40,61) -4.27210629E-02                     1_GWF-(1,46,4)
         61          3          1  2.64979104E-05                    1_GWF-(1,55,72) -2.56517891E-02                    1_GWF-(1,56,72)
         62          3          2  3.42565671E-05                    1_GWF-(1,55,73) -6.15433817E-02                    1_GWF-(1,55,72)
         63          3          3  3.55491875E-05                    1_GWF-(1,55,72)  4.96224090E-02                    1_GWF-(1,55,72)
         64          3          4  2.06604448E-05                    1_GWF-(2,53,71)  1.04079878E-02                     1_GWF-(1,46,3)
         65          3          5  1.88236191E-05                    1_GWF-(2,53,76) -1.75556662E-02                    1_GWF-(1,55,72)
         66          3          6  1.72410021E-05                    1_GWF-(1,55,72)  3.77681761E-02                    1_GWF-(1,55,72)
         67          3          7  1.55835559E-05                    1_GWF-(1,56,72) -3.28094624E-02                    1_GWF-(1,55,72)
         68          3          8  1.09482364E-05                    1_GWF-(1,55,72) -8.08341109E-03                     1_GWF-(1,45,3)
         69          3          9  1.02462874E-05                    1_GWF-(2,42,65)  1.79392353E-02                    1_GWF-(1,55,72)
         70          3         10  7.38850119E-06                    1_GWF-(1,56,72) -1.85366625E-02                    1_GWF-(1,55,72)
         71          4          1  6.87691156E-06                    1_GWF-(1,55,72)  1.44719408E-02                    1_GWF-(1,55,72)
 --------------------------------------------------------------------------------------------------------------------------------------


 UBDSV1 SAVING           STO-SS ON UNIT   1017 AT TIME STEP      1, STRESS PERIOD      1
 UBDSV1 SAVING           STO-SY ON UNIT   1017 AT TIME STEP      1, STRESS PERIOD      1
 UBDSV1 SAVING     FLOW-JA-FACE ON UNIT   1017 AT TIME STEP      1, STRESS PERIOD      1
 UBDSV06 SAVING       DATA-SPDIS IN MODEL TEST_MODEL       PACKAGE NPF             CONNECTED TO MODEL TEST_MODEL       PACKAGE NPF              ON UNIT   1017 AT TIME STEP      1, STRESS PERIOD      1

 HEAD WILL BE SAVED ON UNIT 1018 AT END OF TIME STEP    1, STRESS PERIOD    1


  VOLUME BUDGET FOR ENTIRE MODEL AT END OF TIME STEP    1, STRESS PERIOD   1
  ---------------------------------------------------------------------------------------------------

     CUMULATIVE VOLUME      L**3       RATES FOR THIS TIME STEP      L**3/T          PACKAGE NAME    
     ------------------                 ------------------------                     ----------------

           IN:                                      IN:
           ---                                      ---
              STO-SS =           0.0000                STO-SS =           0.0000     STORAGE                          
              STO-SY =           0.0000                STO-SY =           0.0000     STORAGE                          
                 WEL =           0.0000                   WEL =           0.0000     WEL                              
                 RIV =        2830.5079                   RIV =        2830.5079     RIV                              
                 RCH =        1188.2400                   RCH =        1188.2400     RCH                              
                 EVT =           0.0000                   EVT =           0.0000     EVTA                             
                 CHD =           0.0000                   CHD =           0.0000     CHD                              

            TOTAL IN =        4018.7479              TOTAL IN =        4018.7479

          OUT:                                     OUT:
          ----                                     ----
              STO-SS =         310.9950                STO-SS =         310.9950     STORAGE                          
              STO-SY =        2617.0737                STO-SY =        2617.0737     STORAGE                          
                 WEL =         468.1300                   WEL =         468.1300     WEL                              
                 RIV =         409.0966                   RIV =         409.0966     RIV                              
                 RCH =           0.0000                   RCH =           0.0000     RCH                              
                 EVT =           0.0000                   EVT =           0.0000     EVTA                             
                 CHD =         213.0966                   CHD =         213.0966     CHD                              

           TOTAL OUT =        4018.3920             TOTAL OUT =        4018.3920

            IN - OUT =           0.3559              IN - OUT =           0.3559

 PERCENT DISCREPANCY =           0.01     PERCENT DISCREPANCY =           0.01




         TIME SUMMARY AT END OF TIME STEP    1 IN STRESS PERIOD    1
                    SECONDS     MINUTES      HOURS       DAYS        YEARS
                    -----------------------------------------------------------
   TIME STEP LENGTH  86400.      1440.0      24.000      1.0000     2.73785E-03
 STRESS PERIOD TIME  86400.      1440.0      24.000      1.0000     2.73785E-03
         TOTAL TIME  86400.      1440.0      24.000      1.0000     2.73785E-03


end timestep

