                                   MODFLOW 6
                U.S. GEOLOGICAL SURVEY MODULAR HYDROLOGIC MODEL
                          GROUNDWATER FLOW MODEL (GWF)
                        VERSION 6.4.1 Release 12/09/2022

   MODFLOW 6 compiled Apr 12 2023 19:02:29 with Intel(R) Fortran Intel(R) 64
   Compiler Classic for applications running on Intel(R) 64, Version 2021.7.0
                             Build 20220726_000000

This software has been approved for release by the U.S. Geological 
Survey (USGS). Although the software has been subjected to rigorous 
review, the USGS reserves the right to update the software as needed 
pursuant to further analysis and review. No warranty, expressed or 
implied, is made by the USGS or the U.S. Government as to the 
functionality of the software and related material nor shall the 
fact of release constitute any such warranty. Furthermore, the 
software is released on condition that neither the USGS nor the U.S. 
Government shall be held liable for any damages resulting from its 
authorized or unauthorized use. Also refer to the USGS Water 
Resources Software User Rights Notice for complete use, copyright, 
and distribution information.


As a work of the United States Government, this USGS product is 
in the public domain within the United States. You can copy, 
modify, distribute, and perform the work, even for commercial 
purposes, all without asking permission. Additionally, USGS 
waives copyright and related rights in the work worldwide 
through CC0 1.0 Universal Public Domain Dedication 
(https://creativecommons.org/publicdomain/zero/1.0/).

The following GNU Lesser General Public License (LGPL) libraries
are used in this USGS product:

    SPARSKIT version 2.0
      ilut, luson, and qsplit 
      (https://www-users.cse.umn.edu/~saad/software/SPARSKIT/)

    RCM - Reverse Cuthill McKee Ordering
      (https://people.math.sc.edu/Burkardt/f_src/rcm/rcm.html)

    BLAS - Basic Linear Algebra Subprograms Level 1
      (https://people.math.sc.edu/Burkardt/f_src/blas1_d/blas1_d.html)

    SPARSEKIT - Sparse Matrix Utility Package
      amux, dperm, dvperm, rperm, and cperm
      (https://people.sc.fsu.edu/~jburkardt/f77_src/sparsekit/sparsekit.html)

The following BSD-3 License libraries are used in this USGS product:

    Modern Fortran DAG Library
      Copyright (c) 2018, Jacob Williams
      All rights reserved.
      (https://github.com/jacobwilliams/daglib)

MODFLOW 6 compiler options: -Ilinux/obj_mf6 -O2 -no-heap-arrays -fpe0
-traceback -fpp -module linux/mod_mf6/ -c -o linux/obj_mf6/compilerversion.o

System command used to initiate simulation:
mf6

MODFLOW was compiled using uniform precision.

Real Variables
  KIND: 8
  TINY (smallest non-zero value):    2.225074-308
  HUGE (largest value):    1.797693+308
  PRECISION: 15
  SIZE IN BITS: 64

Integer Variables
  KIND: 4
  HUGE (largest value): 2147483647
  SIZE IN BITS: 32

Long Integer Variables
  KIND: 8
  HUGE (largest value): 9223372036854775807
  SIZE IN BITS: 64

Logical Variables
  KIND: 4
  SIZE IN BITS: 32
 

 OPENED flow.dis
 FILE TYPE:DIS6                   UNIT 1005   STATUS:OLD                 
 FORMAT:FORMATTED              ACCESS:SEQUENTIAL          
 ACTION:READ                


 OPENED flow.npf
 FILE TYPE:NPF6                   UNIT 1006   STATUS:OLD                 
 FORMAT:FORMATTED              ACCESS:SEQUENTIAL          
 ACTION:READ                


 OPENED flow.ic
 FILE TYPE:IC6                    UNIT 1007   STATUS:OLD                 
 FORMAT:FORMATTED              ACCESS:SEQUENTIAL          
 ACTION:READ                


 OPENED flow.chd
 FILE TYPE:CHD6                   UNIT 1008   STATUS:OLD                 
 FORMAT:FORMATTED              ACCESS:SEQUENTIAL          
 ACTION:READ                


 OPENED flow.rch
 FILE TYPE:RCH6                   UNIT 1009   STATUS:OLD                 
 FORMAT:FORMATTED              ACCESS:SEQUENTIAL          
 ACTION:READ                


 OPENED flow.riv
 FILE TYPE:RIV6                   UNIT 1010   STATUS:OLD                 
 FORMAT:FORMATTED              ACCESS:SEQUENTIAL          
 ACTION:READ                


 OPENED flow.sto
 FILE TYPE:STO6                   UNIT 1011   STATUS:OLD                 
 FORMAT:FORMATTED              ACCESS:SEQUENTIAL          
 ACTION:READ                


 OPENED flow.wel
 FILE TYPE:WEL6                   UNIT 1012   STATUS:OLD                 
 FORMAT:FORMATTED              ACCESS:SEQUENTIAL          
 ACTION:READ                


 OPENED flow.evt
 FILE TYPE:EVT6                   UNIT 1013   STATUS:OLD                 
 FORMAT:FORMATTED              ACCESS:SEQUENTIAL          
 ACTION:READ                


 OPENED flow.oc
 FILE TYPE:OC6                    UNIT 1014   STATUS:OLD                 
 FORMAT:FORMATTED              ACCESS:SEQUENTIAL          
 ACTION:READ                

 NAMEFILE OPTIONS:
    STRESS PACKAGE INPUT WILL BE PRINTED FOR ALL MODEL STRESS PACKAGES
    PACKAGE FLOWS WILL BE PRINTED FOR ALL MODEL PACKAGES
    FLOWS WILL BE SAVED TO BUDGET FILE SPECIFIED IN OUTPUT CONTROL

 DIS -- STRUCTURED GRID DISCRETIZATION PACKAGE, VERSION 2 : 3/27/2014 - INPUT READ FROM UNIT 1005

 Loading input for FLOW/DIS
 # File generated by Flopy version 3.3.6 on 07/19/2023 at 13:28:32.
   XORIGIN = .000000000000000
   YORIGIN = .000000000000000
   ANGROT = .000000000000000
   NLAY = 1
   NROW = 100
   NCOL = 250
   DELR = 20.00000000000000
   DELC = 20.00000000000000
   TOP = 15.00000000000000
   BOTM = .000000000000000
   IDOMAIN = variable 3D integer array ranging from 0 to 1
 Loading input complete...


 NPF -- NODE PROPERTY FLOW PACKAGE, VERSION 1, 3/30/2015 INPUT READ FROM UNIT 1006

 Loading input for FLOW/NPF
 # File generated by Flopy version 3.3.6 on 07/19/2023 at 13:28:32.
   IPAKCB = 1
   ISAVSPDIS = 1
   ICELLTYPE = -1
   K = variable 1D double precision array ranging from 7.480463810000000 to 86400.00000000000
   K33 = .1000000000000000
 Loading input complete...

 Setting Discretization Options
    Model length unit [0=UND, 1=FEET, 2=METERS, 3=CENTIMETERS] set as 2
    XORIGIN = .000000000000000
    YORIGIN = .000000000000000
    ANGROT = .000000000000000
 End Setting Discretization Options

 Setting Discretization Dimensions
    NLAY = 1
    NROW = 100
    NCOL = 250
 End Setting Discretization Dimensions

 Setting Discretization Griddata
    DELR set from input file
    DELC set from input file
    TOP set from input file
    BOTM set from input file
    IDOMAIN set from input file
 End Setting Discretization Griddata


 The specified IDOMAIN results in a reduced number of cells.
 Number of user nodes: 25000
 Number of nodes in solution: 14884


 Setting NPF Options
    Cell-by-cell flow information will be saved to binary file whenever ICBCFL is not zero.
    Specific discharge will be calculated at cell centers and written to DATA-SPDIS in budget file when requested.
 End Setting NPF Options

 Setting NPF Griddata
    ICELLTYPE set from input file
    K set from input file
    K33 set from input file
    K22 not provided.  Setting K22 = K.
 End Setting NPF Griddata


 WEL   -- WEL PACKAGE, VERSION 8, 2/22/2014 INPUT READ FROM UNIT 1012
 # File generated by Flopy version 3.3.6 on 07/19/2023 at 13:28:33.

 PROCESSING WEL OPTIONS
    AUXILIARY WEL VARIABLE: CELLGRP         
    WEL BOUNDARIES HAVE NAMES IN LAST COLUMN.
    LISTS OF WEL CELLS WILL BE PRINTED.
    WEL FLOWS WILL BE PRINTED TO LISTING FILE.
    FLOWS WILL BE SAVED TO BUDGET FILE SPECIFIED IN OUTPUT CONTROL
 END OF WEL OPTIONS

 PROCESSING WEL DIMENSIONS
    MAXBOUND =       2
 END OF WEL DIMENSIONS

 RIV   -- RIV PACKAGE, VERSION 8, 2/22/2014 INPUT READ FROM UNIT 1010
 # File generated by Flopy version 3.3.6 on 07/19/2023 at 13:28:33.

 PROCESSING RIV OPTIONS
    AUXILIARY RIV VARIABLE: CELLGRP         
    RIV BOUNDARIES HAVE NAMES IN LAST COLUMN.
    LISTS OF RIV CELLS WILL BE PRINTED.
    RIV FLOWS WILL BE PRINTED TO LISTING FILE.
    FLOWS WILL BE SAVED TO BUDGET FILE SPECIFIED IN OUTPUT CONTROL
 END OF RIV OPTIONS

 PROCESSING RIV DIMENSIONS
    MAXBOUND =     344
 END OF RIV DIMENSIONS

 RCH   -- RCH PACKAGE, VERSION 8, 2/22/2014 INPUT READ FROM UNIT 1009
 # File generated by Flopy version 3.3.6 on 07/19/2023 at 13:28:32.

 PROCESSING RCH OPTIONS
    RECHARGE INPUT WILL BE READ AS ARRAY(S).
    LISTS OF RCHA CELLS WILL BE PRINTED.
    RCHA FLOWS WILL BE PRINTED TO LISTING FILE.
    FLOWS WILL BE SAVED TO BUDGET FILE SPECIFIED IN OUTPUT CONTROL
 END OF RCHA OPTIONS

 EVT   -- EVT PACKAGE, VERSION 8, 2/22/2014 INPUT READ FROM UNIT 1013
 # File generated by Flopy version 3.3.6 on 07/19/2023 at 13:28:33.

 PROCESSING EVT OPTIONS
    EVAPOTRANSPIRATION INPUT WILL BE READ AS ARRAYS.
    LISTS OF EVTA CELLS WILL BE PRINTED.
    EVTA FLOWS WILL BE PRINTED TO LISTING FILE.
    FLOWS WILL BE SAVED TO BUDGET FILE SPECIFIED IN OUTPUT CONTROL
 END OF EVTA OPTIONS

 CHD   -- CHD PACKAGE, VERSION 8, 2/22/2014 INPUT READ FROM UNIT 1008
 # File generated by Flopy version 3.3.6 on 07/19/2023 at 13:28:32.

 PROCESSING CHD OPTIONS
    AUXILIARY CHD VARIABLE: CELLGRP         
    CHD BOUNDARIES HAVE NAMES IN LAST COLUMN.
    LISTS OF CHD CELLS WILL BE PRINTED.
    CHD FLOWS WILL BE PRINTED TO LISTING FILE.
    FLOWS WILL BE SAVED TO BUDGET FILE SPECIFIED IN OUTPUT CONTROL
 END OF CHD OPTIONS

 PROCESSING CHD DIMENSIONS
    MAXBOUND =      31
 END OF CHD DIMENSIONS

 IC -- INITIAL CONDITIONS PACKAGE, VERSION 8, 3/28/2015 INPUT READ FROM UNIT 1007
 # File generated by Flopy version 3.3.6 on 07/19/2023 at 13:28:32.
 PROCESSING GRIDDATA

 OPENED flow_input/flow.ic_STRT_1.txt
 FILE TYPE:OPEN/CLOSE   UNIT 1018   STATUS:OLD                 
 FORMAT:FORMATTED              ACCESS:SEQUENTIAL          
 ACTION:READ                

 END PROCESSING GRIDDATA

 STO -- STORAGE PACKAGE, VERSION 1, 5/19/2014 INPUT READ FROM UNIT 1011


 # File generated by Flopy version 3.3.6 on 07/19/2023 at 13:28:33.
 PROCESSING STORAGE OPTIONS
    CELL-BY-CELL FLOW INFORMATION WILL BE SAVED TO BINARY FILE WHENEVER ICBCFL IS NOT ZERO.
 END OF STORAGE OPTIONS
 PROCESSING GRIDDATA

                 ICONVERT = 1

         SPECIFIC STORAGE =  0.1000000E-03

           SPECIFIC YIELD =  0.1000000E-01
 END PROCESSING GRIDDATA
    BINARY GRID INFORMATION WILL BE WRITTEN TO:
      UNIT NUMBER: 1019
      FILE NAME: /home/janek/Documents/Python/NeckarDIS/Current/BaseModel_models/MODFLOW 6/sim1L/flow.dis.grb

 OPENED /home/janek/Documents/Python/NeckarDIS/Current/BaseModel_models/MODFLOW 6/sim1L/flow.dis.grb
 FILE TYPE:DATA(BINARY)   UNIT 1019   STATUS:REPLACE             
 FORMAT:UNFORMATTED            ACCESS:STREAM              
 ACTION:READWRITE           

      THE LAST TIME STEP WILL BE PRINTED
      THE LAST TIME STEP WILL BE PRINTED
 # File generated by Flopy version 3.3.6 on 07/19/2023 at 13:28:33.

 PROCESSING OC OPTIONS

    BUDGET INFORMATION WILL BE WRITTEN TO:
      UNIT NUMBER: 1020
      FILE NAME: flow.bud

 OPENED flow.bud
 FILE TYPE:DATA(BINARY)   UNIT 1020   STATUS:REPLACE             
 FORMAT:UNFORMATTED            ACCESS:STREAM              
 ACTION:READWRITE           

    HEAD INFORMATION WILL BE WRITTEN TO:
      UNIT NUMBER: 1021
      FILE NAME: flow.hds

 OPENED flow.hds
 FILE TYPE:DATA(BINARY)   UNIT 1021   STATUS:REPLACE             
 FORMAT:UNFORMATTED            ACCESS:STREAM              
 ACTION:READWRITE           

 END OF OC OPTIONS

start timestep kper="1" kstp="1" mode="normal"


 BEGIN READING OUTPUT CONTROL FOR STRESS PERIOD 1
      ALL TIME STEPS WILL BE SAVED
      ALL TIME STEPS WILL BE SAVED

 END READING OUTPUT CONTROL FOR STRESS PERIOD 1


 PROCESSING STORAGE PERIOD DATA
 END PROCESSING STORAGE PERIOD DATA


 STRESS PERIOD 1 IS TRANSIENT


 OPENED flow_input/flow.wel_1.txt
 FILE TYPE:OPEN/CLOSE   UNIT 1022   STATUS:OLD                 
 FORMAT:FORMATTED              ACCESS:SEQUENTIAL          
 ACTION:READ                

 -------------------------------------------------------------------------------------------------------------
  WEL NO.    LAYER    ROW     COL     STRESS RATE    BOUNDNAME                                    CELLGRP     
 -------------------------------------------------------------------------------------------------------------
     1         1      55      72    -636.260000      WELL1                                     1.00000000     
     2         1      29      191   -300.000000      WELL2                                     2.00000000     
 -------------------------------------------------------------------------------------------------------------



 OPENED flow_input/flow.riv_1.txt
 FILE TYPE:OPEN/CLOSE   UNIT 1023   STATUS:OLD                 
 FORMAT:FORMATTED              ACCESS:SEQUENTIAL          
 ACTION:READ                

 -----------------------------------------------------------------------------------------------------------------------------------------------
  RIV NO.    LAYER    ROW     COL        STAGE         CONDUCTANCE       BOTTOM EL.    BOUNDNAME                                    CELLGRP     
 -----------------------------------------------------------------------------------------------------------------------------------------------
     1         1      47       1     13.9942819       395.000000       12.9942819      RIVER                                     1.00000000     
     2         1      47       2     13.9813256       500.000000       12.9813256      RIVER                                     1.00000000     
     3         1      47       3     13.9668493       500.000000       12.9668493      RIVER                                     1.00000000     
     4         1      47       4     13.9523729       500.000000       12.9523729      RIVER                                     1.00000000     
     5         1      47       5     13.9378966       500.000000       12.9378966      RIVER                                     1.00000000     
     6         1      47       6     13.9234203       500.000000       12.9234203      RIVER                                     1.00000000     
     7         1      47       7     13.9089440       500.000000       12.9089440      RIVER                                     1.00000000     
     8         1      47       8     13.8944653       500.164783       12.8944653      RIVER                                     1.00000000     
     9         1      47       9     13.8799837       500.202188       12.8799837      RIVER                                     1.00000000     
     10        1      47      10     13.8655015       500.202188       12.8655015      RIVER                                     1.00000000     
     11        1      47      11     13.8510194       500.202188       12.8510194      RIVER                                     1.00000000     
     12        1      47      12     13.8363740       511.476705       12.8363740      RIVER                                     1.00000000     
     13        1      47      13     13.8224463       450.624567       12.8224463      RIVER                                     1.00000000     
     14        1      46      13     13.8148166       76.4217101       12.8148166      RIVER                                     1.00000000     
     15        1      46      14     13.8060806       527.046277       12.8060806      RIVER                                     1.00000000     
     16        1      46      15     13.7908611       524.296769       12.7908611      RIVER                                     1.00000000     
     17        1      46      16     13.7757679       518.317682       12.7757679      RIVER                                     1.00000000     
     18        1      46      17     13.7674184       58.4497729       12.7674184      RIVER                                     1.00000000     
     19        1      45      17     13.7599151       459.867909       12.7599151      RIVER                                     1.00000000     
     20        1      45      18     13.7457546       518.317682       12.7457546      RIVER                                     1.00000000     
     21        1      45      19     13.7307374       519.046357       12.7307374      RIVER                                     1.00000000     
     22        1      45      20     13.7189007       298.610437       12.7189007      RIVER                                     1.00000000     
     23        1      44      20     13.7111864       234.280754       12.7111864      RIVER                                     1.00000000     
     24        1      44      21     13.7000806       532.891191       12.7000806      RIVER                                     1.00000000     
     25        1      44      22     13.6844270       548.436044       12.6844270      RIVER                                     1.00000000     
     26        1      44      23     13.6761235       25.1557647       12.6761235      RIVER                                     1.00000000     
     27        1      43      23     13.6680310       533.861230       12.6680310      RIVER                                     1.00000000     
     28        1      43      24     13.6522101       559.016994       12.6522101      RIVER                                     1.00000000     
     29        1      43      25     13.6437535       25.1557647       12.6437535      RIVER                                     1.00000000     
     30        1      42      25     13.6359623       513.047329       12.6359623      RIVER                                     1.00000000     
     31        1      42      26     13.6210514       516.968711       12.6210514      RIVER                                     1.00000000     
     32        1      42      27     13.6060934       516.310831       12.6060934      RIVER                                     1.00000000     
     33        1      42      28     13.5913734       500.521718       12.5913734      RIVER                                     1.00000000     
     34        1      42      29     13.5768820       500.521718       12.5768820      RIVER                                     1.00000000     
     35        1      42      30     13.5645963       348.151356       12.5645963      RIVER                                     1.00000000     
     36        1      41      30     13.5573161       154.751545       12.5573161      RIVER                                     1.00000000     
     37        1      41      31     13.5476534       512.732915       12.5476534      RIVER                                     1.00000000     
     38        1      41      32     13.5328085       512.732915       12.5328085      RIVER                                     1.00000000     
     39        1      41      33     13.5178695       519.228610       12.5178695      RIVER                                     1.00000000     
     40        1      41      34     13.5055608       331.033024       12.5055608      RIVER                                     1.00000000     
     41        1      40      34     13.4978735       199.997623       12.4978735      RIVER                                     1.00000000     
     42        1      40      35     13.4872909       531.030647       12.4872909      RIVER                                     1.00000000     
     43        1      40      36     13.4719161       531.030647       12.4719161      RIVER                                     1.00000000     
     44        1      40      37     13.4608018       236.728735       12.4608018      RIVER                                     1.00000000     
     45        1      39      37     13.4532120       287.566956       12.4532120      RIVER                                     1.00000000     
     46        1      39      38     13.4414943       521.867442       12.4414943      RIVER                                     1.00000000     
     47        1      39      39     13.4263849       521.867442       12.4263849      RIVER                                     1.00000000     
     48        1      39      40     13.4128333       414.254776       12.4128333      RIVER                                     1.00000000     
     49        1      38      40     13.4052786       107.612666       12.4052786      RIVER                                     1.00000000     
     50        1      38      41     13.3964265       503.877450       12.3964265      RIVER                                     1.00000000     
     51        1      38      42     13.3818821       500.826516       12.3818821      RIVER                                     1.00000000     
     52        1      38      43     13.3673818       500.826516       12.3673818      RIVER                                     1.00000000     
     53        1      38      44     13.3528816       500.826516       12.3528816      RIVER                                     1.00000000     
     54        1      38      45     13.3383731       501.393663       12.3383731      RIVER                                     1.00000000     
     55        1      38      46     13.3238402       502.519492       12.3238402      RIVER                                     1.00000000     
     56        1      38      47     13.3092909       502.519492       12.3092909      RIVER                                     1.00000000     
     57        1      38      48     13.2947417       502.519492       12.2947417      RIVER                                     1.00000000     
     58        1      38      49     13.2801155       507.830110       12.2801155      RIVER                                     1.00000000     
     59        1      38      50     13.2685502       291.081969       12.2685502      RIVER                                     1.00000000     
     60        1      37      50     13.2611067       223.109212       12.2611067      RIVER                                     1.00000000     
     61        1      37      51     13.2504333       514.191181       12.2504333      RIVER                                     1.00000000     
     62        1      37      52     13.2353210       529.739473       12.2353210      RIVER                                     1.00000000     
     63        1      37      53     13.2229463       325.083308       12.2229463      RIVER                                     1.00000000     
     64        1      36      53     13.2145024       258.211393       12.2145024      RIVER                                     1.00000000     
     65        1      36      54     13.2024940       571.306001       12.2024940      RIVER                                     1.00000000     
     66        1      36      55     13.1914968       188.366424       12.1914968      RIVER                                     1.00000000     
     67        1      35      55     13.1832384       382.106138       12.1832384      RIVER                                     1.00000000     
     68        1      35      56     13.1692788       582.200670       12.1692788      RIVER                                     1.00000000     
     69        1      34      56     13.1605756       19.0052423       12.1605756      RIVER                                     1.00000000     
     70        1      34      57     13.1507710       658.282134       12.1507710      RIVER                                     1.00000000     
     71        1      34      58     13.1399181       91.4162770       12.1399181      RIVER                                     1.00000000     
     72        1      33      58     13.1294260       633.360860       12.1294260      RIVER                                     1.00000000     
     73        1      33      59     13.1195373       49.7359392       12.1195373      RIVER                                     1.00000000     
     74        1      32      59     13.1093986       650.625233       12.1093986      RIVER                                     1.00000000     
     75        1      31      59     13.0988065       81.0598551       12.0988065      RIVER                                     1.00000000     
     76        1      31      60     13.0894642       564.290201       12.0894642      RIVER                                     1.00000000     
     77        1      30      60     13.0779348       232.143794       12.0779348      RIVER                                     1.00000000     
     78        1      30      61     13.0687095       405.126561       12.0687095      RIVER                                     1.00000000     
     79        1      29      61     13.0570352       401.316079       12.0570352      RIVER                                     1.00000000     
     80        1      29      62     13.0478099       235.954276       12.0478099      RIVER                                     1.00000000     
     81        1      28      62     13.0362708       561.143135       12.0362708      RIVER                                     1.00000000     
     82        1      28      63     13.0269462       82.9883084       12.0269462      RIVER                                     1.00000000     
     83        1      27      63     13.0164138       644.569385       12.0164138      RIVER                                     1.00000000     
     84        1      26      63     13.0061459       64.7255091       12.0061459      RIVER                                     1.00000000     
     85        1      26      64     12.9956649       659.279223       11.9956649      RIVER                                     1.00000000     
     86        1      26      65     12.9856636       31.5971837       11.9856636      RIVER                                     1.00000000     
     87        1      25      65     12.9761590       624.967673       11.9761590      RIVER                                     1.00000000     
     88        1      25      66     12.9649910       146.496034       11.9649910      RIVER                                     1.00000000     
     89        1      24      66     12.9553632       518.576221       11.9553632      RIVER                                     1.00000000     
     90        1      24      67     12.9445010       231.772595       11.9445010      RIVER                                     1.00000000     
     91        1      23      67     12.9346845       446.329979       11.9346845      RIVER                                     1.00000000     
     92        1      23      68     12.9210345       496.595144       11.9210345      RIVER                                     1.00000000     
     93        1      22      68     12.9130440       55.3736065       11.9130440      RIVER                                     1.00000000     
     94        1      22      69     12.9045868       528.831777       11.9045868      RIVER                                     1.00000000     
     95        1      22      70     12.8892758       528.831777       11.8892758      RIVER                                     1.00000000     
     96        1      22      71     12.8755081       422.214782       11.8755081      RIVER                                     1.00000000     
     97        1      21      71     12.8678785       104.830390       11.8678785      RIVER                                     1.00000000     
     98        1      21      72     12.8589640       510.965722       11.8589640      RIVER                                     1.00000000     
     99        1      21      73     12.8441702       510.965722       11.8441702      RIVER                                     1.00000000     
    100        1      21      74     12.8293764       510.965722       11.8293764      RIVER                                     1.00000000     
    101        1      21      75     12.8145826       510.965722       11.8145826      RIVER                                     1.00000000     
    102        1      21      76     12.8036161       246.584158       11.8036161      RIVER                                     1.00000000     
    103        1      20      76     12.7962482       262.376017       11.7962482      RIVER                                     1.00000000     
    104        1      20      77     12.7852100       500.124932       11.7852100      RIVER                                     1.00000000     
    105        1      20      78     12.7707301       500.124932       11.7707301      RIVER                                     1.00000000     
    106        1      20      79     12.7562502       500.124932       11.7562502      RIVER                                     1.00000000     
    107        1      20      80     12.7417703       500.124932       11.7417703      RIVER                                     1.00000000     
    108        1      20      81     12.7272903       500.124932       11.7272903      RIVER                                     1.00000000     
    109        1      20      82     12.7128111       500.078707       11.7128111      RIVER                                     1.00000000     
    110        1      20      83     12.6983336       500.000000       11.6983336      RIVER                                     1.00000000     
    111        1      20      84     12.6838573       500.000000       11.6838573      RIVER                                     1.00000000     
    112        1      20      85     12.6693810       500.000000       11.6693810      RIVER                                     1.00000000     
    113        1      20      86     12.6549047       500.000000       11.6549047      RIVER                                     1.00000000     
    114        1      20      87     12.6404028       501.767404       11.6404028      RIVER                                     1.00000000     
    115        1      20      88     12.6258234       505.355770       11.6258234      RIVER                                     1.00000000     
    116        1      20      89     12.6182678       16.5709683       11.6182678      RIVER                                     1.00000000     
    117        1      21      89     12.6109521       488.784802       11.6109521      RIVER                                     1.00000000     
    118        1      21      90     12.5965606       505.355770       11.5965606      RIVER                                     1.00000000     
    119        1      21      91     12.5819293       505.355770       11.5819293      RIVER                                     1.00000000     
    120        1      21      92     12.5670314       523.762658       11.5670314      RIVER                                     1.00000000     
    121        1      21      93     12.5533913       418.473917       11.5533913      RIVER                                     1.00000000     
    122        1      22      93     12.5457906       106.568364       11.5457906      RIVER                                     1.00000000     
    123        1      22      94     12.5366473       525.042281       11.5366473      RIVER                                     1.00000000     
    124        1      22      95     12.5213261       533.319139       11.5213261      RIVER                                     1.00000000     
    125        1      22      96     12.5087381       336.241080       11.5087381      RIVER                                     1.00000000     
    126        1      23      96     12.5009674       200.541425       11.5009674      RIVER                                     1.00000000     
    127        1      23      97     12.4902937       536.782505       11.4902937      RIVER                                     1.00000000     
    128        1      23      98     12.4747524       536.782505       11.4747524      RIVER                                     1.00000000     
    129        1      23      99     12.4655304       100.264230       11.4655304      RIVER                                     1.00000000     
    130        1      24      99     12.4577597       436.518275       11.4577597      RIVER                                     1.00000000     
    131        1      24      100    12.4436060       541.199443       11.4436060      RIVER                                     1.00000000     
    132        1      24      101    12.4310016       329.492660       11.4310016      RIVER                                     1.00000000     
    133        1      25      101    12.4230731       218.195864       11.4230731      RIVER                                     1.00000000     
    134        1      25      102    12.4119859       547.688525       11.4119859      RIVER                                     1.00000000     
    135        1      25      103    12.3974093       459.241194       11.3974093      RIVER                                     1.00000000     
    136        1      26      103    12.3894808       88.4473302       11.3894808      RIVER                                     1.00000000     
    137        1      26      104    12.3802719       547.688525       11.3802719      RIVER                                     1.00000000     
    138        1      26      105    12.3644813       543.095058       11.3644813      RIVER                                     1.00000000     
    139        1      26      106    12.3555014       77.2219006       11.3555014      RIVER                                     1.00000000     
    140        1      27      106    12.3477073       461.186894       11.3477073      RIVER                                     1.00000000     
    141        1      27      107    12.3332368       538.408795       11.3332368      RIVER                                     1.00000000     
    142        1      27      108    12.3203994       348.381778       11.3203994      RIVER                                     1.00000000     
    143        1      28      108    12.3126052       190.027017       11.3126052      RIVER                                     1.00000000     
    144        1      28      109    12.3020601       538.408795       11.3020601      RIVER                                     1.00000000     
    145        1      28      110    12.2865079       535.914834       11.2865079      RIVER                                     1.00000000     
    146        1      28      111    12.2771460       110.787741       11.2771460      RIVER                                     1.00000000     
    147        1      29      111    12.2694629       419.947329       11.2694629      RIVER                                     1.00000000     
    148        1      29      112    12.2557006       530.735070       11.2557006      RIVER                                     1.00000000     
    149        1      29      113    12.2403344       530.735070       11.2403344      RIVER                                     1.00000000     
    150        1      29      114    12.2325136       9.51220826       11.2325136      RIVER                                     1.00000000     
    151        1      30      114    12.2248305       521.222862       11.2248305      RIVER                                     1.00000000     
    152        1      30      115    12.2096020       530.735070       11.2096020      RIVER                                     1.00000000     
    153        1      30      116    12.1944003       519.378525       11.1944003      RIVER                                     1.00000000     
    154        1      30      117    12.1858562       70.8306823       11.1858562      RIVER                                     1.00000000     
    155        1      31      117    12.1784955       437.636653       11.1784955      RIVER                                     1.00000000     
    156        1      31      118    12.1647994       508.467335       11.1647994      RIVER                                     1.00000000     
    157        1      31      119    12.1500804       508.298558       11.1500804      RIVER                                     1.00000000     
    158        1      31      120    12.1354835       500.028494       11.1354835      RIVER                                     1.00000000     
    159        1      31      121    12.1210064       500.028494       11.1210064      RIVER                                     1.00000000     
    160        1      31      122    12.1065271       500.179629       11.1065271      RIVER                                     1.00000000     
    161        1      31      123    12.0920373       500.748184       11.0920373      RIVER                                     1.00000000     
    162        1      31      124    12.0775415       500.598547       11.0775415      RIVER                                     1.00000000     
    163        1      31      125    12.0630566       500.000000       11.0630566      RIVER                                     1.00000000     
    164        1      31      126    12.0485803       500.000000       11.0485803      RIVER                                     1.00000000     
    165        1      31      127    12.0341011       500.199502       11.0341011      RIVER                                     1.00000000     
    166        1      31      128    12.0195858       502.493781       11.0195858      RIVER                                     1.00000000     
    167        1      31      129    12.0050372       502.493781       11.0050372      RIVER                                     1.00000000     
    168        1      31      130    11.9904887       502.493781       10.9904887      RIVER                                     1.00000000     
    169        1      31      131    11.9757465       515.873696       10.9757465      RIVER                                     1.00000000     
    170        1      31      132    11.9652497       209.230396       10.9652497      RIVER                                     1.00000000     
    171        1      30      132    11.9577101       311.592035       10.9577101      RIVER                                     1.00000000     
    172        1      30      133    11.9456563       521.064329       10.9456563      RIVER                                     1.00000000     
    173        1      30      134    11.9305100       525.220563       10.9305100      RIVER                                     1.00000000     
    174        1      30      135    11.9179251       344.123990       10.9179251      RIVER                                     1.00000000     
    175        1      29      135    11.9103218       181.096573       10.9103218      RIVER                                     1.00000000     
    176        1      29      136    11.9000970       525.220563       10.9000970      RIVER                                     1.00000000     
    177        1      29      137    11.8851838       504.959737       10.8851838      RIVER                                     1.00000000     
    178        1      29      138    11.8705859       503.434729       10.8705859      RIVER                                     1.00000000     
    179        1      29      139    11.8560102       503.434729       10.8560102      RIVER                                     1.00000000     
    180        1      29      140    11.8414394       503.092755       10.8414394      RIVER                                     1.00000000     
    181        1      29      141    11.8269039       500.992060       10.8269039      RIVER                                     1.00000000     
    182        1      29      142    11.8164120       223.776454       10.8164120      RIVER                                     1.00000000     
    183        1      28      142    11.8091594       277.215607       10.8091594      RIVER                                     1.00000000     
    184        1      28      143    11.7978939       500.992060       10.7978939      RIVER                                     1.00000000     
    185        1      28      144    11.7833925       500.739100       10.7833925      RIVER                                     1.00000000     
    186        1      28      145    11.7688975       500.548270       10.7688975      RIVER                                     1.00000000     
    187        1      28      146    11.7548591       469.203579       10.7548591      RIVER                                     1.00000000     
    188        1      29      146    11.7475984       32.3566562       10.7475984      RIVER                                     1.00000000     
    189        1      29      147    11.7397565       509.347968       10.7397565      RIVER                                     1.00000000     
    190        1      29      148    11.7250095       509.347968       10.7250095      RIVER                                     1.00000000     
    191        1      29      149    11.7102626       509.347968       10.7102626      RIVER                                     1.00000000     
    192        1      29      150    11.6955091       509.800283       10.6955091      RIVER                                     1.00000000     
    193        1      29      151    11.6816592       446.928990       10.6816592      RIVER                                     1.00000000     
    194        1      30      151    11.6742202       66.9421296       10.6742202      RIVER                                     1.00000000     
    195        1      30      152    11.6658122       513.871119       10.6658122      RIVER                                     1.00000000     
    196        1      30      153    11.6506336       534.638964       10.6506336      RIVER                                     1.00000000     
    197        1      30      154    11.6360813       470.609361       10.6360813      RIVER                                     1.00000000     
    198        1      31      154    11.6282468       70.5878702       10.6282468      RIVER                                     1.00000000     
    199        1      31      155    11.6193904       541.197231       10.6193904      RIVER                                     1.00000000     
    200        1      31      156    11.6034284       561.431029       10.6034284      RIVER                                     1.00000000     
    201        1      31      157    11.5949162       26.5821479       10.5949162      RIVER                                     1.00000000     
    202        1      32      157    11.5865237       553.155650       10.5865237      RIVER                                     1.00000000     
    203        1      32      158    11.5724325       420.244038       10.5724325      RIVER                                     1.00000000     
    204        1      33      158    11.5639010       169.097571       10.5639010      RIVER                                     1.00000000     
    205        1      33      159    11.5528382       595.103896       10.5528382      RIVER                                     1.00000000     
    206        1      33      160    11.5419387       157.809277       10.5419387      RIVER                                     1.00000000     
    207        1      34      160    11.5333238       437.294618       10.5333238      RIVER                                     1.00000000     
    208        1      34      161    11.5199765       484.716126       10.5199765      RIVER                                     1.00000000     
    209        1      35      161    11.5112739       116.445105       10.5112739      RIVER                                     1.00000000     
    210        1      35      162    11.5004575       630.735279       10.5004575      RIVER                                     1.00000000     
    211        1      35      163    11.4902545       74.0760401       10.4902545      RIVER                                     1.00000000     
    212        1      36      163    11.4815379       528.050734       10.4815379      RIVER                                     1.00000000     
    213        1      36      164    11.4681744       395.076556       10.4681744      RIVER                                     1.00000000     
    214        1      37      164    11.4596189       195.924689       10.4596189      RIVER                                     1.00000000     
    215        1      37      165    11.4482271       591.001245       10.4482271      RIVER                                     1.00000000     
    216        1      37      166    11.4374871       150.899726       10.4374871      RIVER                                     1.00000000     
    217        1      38      166    11.4292157       420.474938       10.4292157      RIVER                                     1.00000000     
    218        1      38      167    11.4149763       563.162123       10.4149763      RIVER                                     1.00000000     
    219        1      38      168    11.4053869       99.2573242       10.4053869      RIVER                                     1.00000000     
    220        1      39      168    11.3972344       463.904799       10.3972344      RIVER                                     1.00000000     
    221        1      39      169    11.3822536       570.945990       10.3822536      RIVER                                     1.00000000     
    222        1      39      170    11.3736631       22.4694349       10.3736631      RIVER                                     1.00000000     
    223        1      40      170    11.3653485       551.892497       10.3653485      RIVER                                     1.00000000     
    224        1      40      171    11.3506401       464.133955       10.3506401      RIVER                                     1.00000000     
    225        1      41      171    11.3422110       118.140843       10.3422110      RIVER                                     1.00000000     
    226        1      41      172    11.3313049       635.230133       10.3313049      RIVER                                     1.00000000     
    227        1      41      173    11.3211762       64.4474153       10.3211762      RIVER                                     1.00000000     
    228        1      42      173    11.3119804       570.782717       10.3119804      RIVER                                     1.00000000     
    229        1      42      174    11.3002455       239.846780       10.3002455      RIVER                                     1.00000000     
    230        1      43      174    11.2909093       405.083555       10.2909093      RIVER                                     1.00000000     
    231        1      43      175    11.2796202       374.746774       10.2796202      RIVER                                     1.00000000     
    232        1      44      175    11.2701759       277.651860       10.2701759      RIVER                                     1.00000000     
    233        1      44      176    11.2589078       500.727199       10.2589078      RIVER                                     1.00000000     
    234        1      45      176    11.2494635       151.671434       10.2494635      RIVER                                     1.00000000     
    235        1      45      177    11.2381496       629.876908       10.2381496      RIVER                                     1.00000000     
    236        1      46      177    11.2287486       19.5275186       10.2287486      RIVER                                     1.00000000     
    237        1      46      178    11.2194344       623.882382       10.2194344      RIVER                                     1.00000000     
    238        1      46      179    11.2071603       223.991162       10.2071603      RIVER                                     1.00000000     
    239        1      47      179    11.1991140       331.836226       10.1991140      RIVER                                     1.00000000     
    240        1      47      180    11.1865665       534.921606       10.1865665      RIVER                                     1.00000000     
    241        1      47      181    11.1710791       534.921606       10.1710791      RIVER                                     1.00000000     
    242        1      47      182    11.1632600       5.20787498       10.1632600      RIVER                                     1.00000000     
    243        1      48      182    11.1555599       526.704258       10.1555599      RIVER                                     1.00000000     
    244        1      48      183    11.1402737       529.243356       10.1402737      RIVER                                     1.00000000     
    245        1      48      184    11.1261178       448.622943       10.1261178      RIVER                                     1.00000000     
    246        1      49      184    11.1184563       80.6204135       10.1184563      RIVER                                     1.00000000     
    247        1      49      185    11.1099773       505.098878       10.1099773      RIVER                                     1.00000000     
    248        1      49      186    11.0953660       504.223171       10.0953660      RIVER                                     1.00000000     
    249        1      49      187    11.0807674       504.223171       10.0807674      RIVER                                     1.00000000     
    250        1      49      188    11.0661542       505.233394       10.0661542      RIVER                                     1.00000000     
    251        1      49      189    11.0515123       506.204001       10.0515123      RIVER                                     1.00000000     
    252        1      49      190    11.0373086       474.966591       10.0373086      RIVER                                     1.00000000     
    253        1      48      190    11.0294806       65.7804344       10.0294806      RIVER                                     1.00000000     
    254        1      48      191    11.0199182       594.775858       10.0199182      RIVER                                     1.00000000     
    255        1      48      192    11.0070944       291.070195       10.0070944      RIVER                                     1.00000000     
    256        1      47      192    10.9988622       277.598028       9.99886217      RIVER                                     1.00000000     
    257        1      47      193    10.9866888       563.320876       9.98668877      RIVER                                     1.00000000     
    258        1      47      194    10.9749937       244.557092       9.97499368      RIVER                                     1.00000000     
    259        1      46      194    10.9670095       306.974539       9.96700954      RIVER                                     1.00000000     
    260        1      46      195    10.9549360       527.046277       9.95493599      RIVER                                     1.00000000     
    261        1      46      196    10.9396766       527.046277       9.93967662      RIVER                                     1.00000000     
    262        1      46      197    10.9295181       174.686940       9.92951812      RIVER                                     1.00000000     
    263        1      45      197    10.9219738       346.458957       9.92197385      RIVER                                     1.00000000     
    264        1      45      198    10.9094196       520.769277       9.90941958      RIVER                                     1.00000000     
    265        1      45      199    10.8942823       524.890338       9.89428229      RIVER                                     1.00000000     
    266        1      45      200    10.8828888       262.156689       9.88288876      RIVER                                     1.00000000     
    267        1      44      200    10.8750659       278.236687       9.87506586      RIVER                                     1.00000000     
    268        1      44      201    10.8632151       540.393375       9.86321511      RIVER                                     1.00000000     
    269        1      44      202    10.8497194       391.870852       9.84971937      RIVER                                     1.00000000     
    270        1      43      202    10.8412836       190.860825       9.84128356      RIVER                                     1.00000000     
    271        1      43      203    10.8298233       600.796481       9.82982329      RIVER                                     1.00000000     
    272        1      43      204    10.8195253       110.574414       9.81952526      RIVER                                     1.00000000     
    273        1      42      204    10.8108228       490.576934       9.81082281      RIVER                                     1.00000000     
    274        1      42      205    10.7977827       410.212866       9.79778270      RIVER                                     1.00000000     
    275        1      41      205    10.7890823       190.793755       9.78908234      RIVER                                     1.00000000     
    276        1      41      206    10.7776221       600.863230       9.77762207      RIVER                                     1.00000000     
    277        1      41      207    10.7673319       109.963273       9.76733193      RIVER                                     1.00000000     
    278        1      40      207    10.7586360       490.736547       9.75863601      RIVER                                     1.00000000     
    279        1      40      208    10.7455762       411.413366       9.74557621      RIVER                                     1.00000000     
    280        1      39      208    10.7368773       189.490312       9.73687734      RIVER                                     1.00000000     
    281        1      39      209    10.7254252       601.605856       9.72542519      RIVER                                     1.00000000     
    282        1      39      210    10.7152438       101.709346       9.71524378      RIVER                                     1.00000000     
    283        1      38      210    10.7048787       614.292036       9.70487872      RIVER                                     1.00000000     
    284        1      38      211    10.6949902       68.7931387       9.69499017      RIVER                                     1.00000000     
    285        1      37      211    10.6843747       664.507499       9.68437469      RIVER                                     1.00000000     
    286        1      36      211    10.6743822       25.7577703       9.67438219      RIVER                                     1.00000000     
    287        1      36      212    10.6648124       635.309712       9.66481237      RIVER                                     1.00000000     
    288        1      35      212    10.6538753       120.208153       9.65387526      RIVER                                     1.00000000     
    289        1      35      213    10.6436390       586.898628       9.64363897      RIVER                                     1.00000000     
    290        1      34      213    10.6334597       116.268231       9.63345971      RIVER                                     1.00000000     
    291        1      34      214    10.6226486       630.543612       9.62264863      RIVER                                     1.00000000     
    292        1      33      214    10.6129308       40.7457001       9.61293084      RIVER                                     1.00000000     
    293        1      33      215    10.6026232       671.289312       9.60262320      RIVER                                     1.00000000     
    294        1      33      216    10.5923611       37.5994220       9.59236111      RIVER                                     1.00000000     
    295        1      32      216    10.5831149       601.115108       9.58311488      RIVER                                     1.00000000     
    296        1      32      217    10.5714326       205.876180       9.57143262      RIVER                                     1.00000000     
    297        1      31      217    10.5622112       431.123888       9.56221121      RIVER                                     1.00000000     
    298        1      31      218    10.5502285       396.625111       9.55022846      RIVER                                     1.00000000     
    299        1      30      218    10.5413287       218.154880       9.54132872      RIVER                                     1.00000000     
    300        1      30      219    10.5293938       606.292194       9.52939377      RIVER                                     1.00000000     
    301        1      30      220    10.5197643       58.8965878       9.51976429      RIVER                                     1.00000000     
    302        1      29      220    10.5110687       541.782533       9.51106867      RIVER                                     1.00000000     
    303        1      29      221    10.4980079       360.437507       9.49800785      RIVER                                     1.00000000     
    304        1      28      221    10.4893122       240.241614       9.48931224      RIVER                                     1.00000000     
    305        1      28      222    10.4771388       600.679121       9.47713881      RIVER                                     1.00000000     
    306        1      28      223    10.4675558       61.2993043       9.46755581      RIVER                                     1.00000000     
    307        1      27      223    10.4594360       499.603403       9.45943600      RIVER                                     1.00000000     
    308        1      27      224    10.4445362       529.649810       9.44453622      RIVER                                     1.00000000     
    309        1      27      225    10.4318255       348.386323       9.43182549      RIVER                                     1.00000000     
    310        1      26      225    10.4242126       177.498202       9.42421263      RIVER                                     1.00000000     
    311        1      26      226    10.4141670       516.438283       9.41416699      RIVER                                     1.00000000     
    312        1      26      227    10.3992147       516.438283       9.39921475      RIVER                                     1.00000000     
    313        1      26      228    10.3842625       516.438283       9.38426251      RIVER                                     1.00000000     
    314        1      26      229    10.3720738       325.539072       9.37207378      RIVER                                     1.00000000     
    315        1      25      229    10.3646965       184.070783       9.36469651      RIVER                                     1.00000000     
    316        1      25      230    10.3546849       507.512234       9.35468494      RIVER                                     1.00000000     
    317        1      25      231    10.3400074       506.385399       9.34000745      RIVER                                     1.00000000     
    318        1      25      232    10.3254387       500.000000       9.32543870      RIVER                                     1.00000000     
    319        1      25      233    10.3109624       500.000000       9.31096239      RIVER                                     1.00000000     
    320        1      25      234    10.2964861       500.000000       9.29648608      RIVER                                     1.00000000     
    321        1      25      235    10.2818748       509.326845       9.28187476      RIVER                                     1.00000000     
    322        1      25      236    10.2672696       499.574136       9.26726960      RIVER                                     1.00000000     
    323        1      26      236    10.2598726       11.3986231       9.25987260      RIVER                                     1.00000000     
    324        1      26      237    10.2520798       526.917212       9.25207977      RIVER                                     1.00000000     
    325        1      26      238    10.2367204       534.080663       9.23672044      RIVER                                     1.00000000     
    326        1      26      239    10.2229044       420.308455       9.22290440      RIVER                                     1.00000000     
    327        1      27      239    10.2151729       113.772207       9.21517289      RIVER                                     1.00000000     
    328        1      27      240    10.2054478       558.019541       9.20544782      RIVER                                     1.00000000     
    329        1      27      241    10.1904911       475.164445       9.19049113      RIVER                                     1.00000000     
    330        1      28      241    10.1823986       83.8525492       9.18239863      RIVER                                     1.00000000     
    331        1      28      242    10.1730923       559.016994       9.17309225      RIVER                                     1.00000000     
    332        1      28      243    10.1588910       421.985020       9.15889096      RIVER                                     1.00000000     
    333        1      29      243    10.1504687       159.812517       9.15046868      RIVER                                     1.00000000     
    334        1      29      244    10.1396399       588.222818       9.13963989      RIVER                                     1.00000000     
    335        1      29      245    10.1282123       201.175080       9.12821232      RIVER                                     1.00000000     
    336        1      30      245    10.1196970       387.047738       9.11969703      RIVER                                     1.00000000     
    337        1      30      246    10.1067264       508.939212       9.10672644      RIVER                                     1.00000000     
    338        1      31      246    10.0976475       118.219166       9.09764751      RIVER                                     1.00000000     
    339        1      31      247    10.0867601       633.867303       9.08676007      RIVER                                     1.00000000     
    340        1      32      247    10.0770705       35.4712665       9.07707052      RIVER                                     1.00000000     
    341        1      32      248    10.0670120       659.352133       9.06701204      RIVER                                     1.00000000     
    342        1      33      248    10.0562873       81.4942688       9.05628732      RIVER                                     1.00000000     
    343        1      33      249    10.0472420       543.340935       9.04724201      RIVER                                     1.00000000     
    344        1      34      249    10.0351728       290.383457       9.03517276      RIVER                                     1.00000000     
 -----------------------------------------------------------------------------------------------------------------------------------------------



                 RECHARGE =  0.2000000E-03

               ET SURFACE =   14.50000    

  EVAPOTRANSPIRATION RATE =  0.1725600E-02

         EXTINCTION DEPTH =   5.000000    

 OPENED flow_input/flow.chd_1.txt
 FILE TYPE:OPEN/CLOSE   UNIT 1024   STATUS:OLD                 
 FORMAT:FORMATTED              ACCESS:SEQUENTIAL          
 ACTION:READ                

 -------------------------------------------------------------------------------------------------------------
  CHD NO.    LAYER    ROW     COL         HEAD       BOUNDNAME                                    CELLGRP     
 -------------------------------------------------------------------------------------------------------------
     1         1      23      250    10.0000000                                                1.00000000     
     2         1      24      250    10.0000000                                                1.00000000     
     3         1      25      250    10.0000000                                                1.00000000     
     4         1      26      250    10.0000000                                                1.00000000     
     5         1      27      250    10.0000000                                                1.00000000     
     6         1      28      250    10.0000000                                                1.00000000     
     7         1      29      250    10.0000000                                                1.00000000     
     8         1      30      250    10.0000000                                                1.00000000     
     9         1      31      250    10.0000000                                                1.00000000     
     10        1      32      250    10.0000000                                                1.00000000     
     11        1      33      250    10.0000000                                                1.00000000     
     12        1      34      250    10.0000000                                                1.00000000     
     13        1      35      250    10.0000000                                                1.00000000     
     14        1      36      250    10.0000000                                                1.00000000     
     15        1      37      250    10.0000000                                                1.00000000     
     16        1      38      250    10.0000000                                                1.00000000     
     17        1      39      250    10.0000000                                                1.00000000     
     18        1      40      250    10.0000000                                                1.00000000     
     19        1      41      250    10.0000000                                                1.00000000     
     20        1      42      250    10.0000000                                                1.00000000     
     21        1      43      250    10.0000000                                                1.00000000     
     22        1      44      250    10.0000000                                                1.00000000     
     23        1      45      250    10.0000000                                                1.00000000     
     24        1      46      250    10.0000000                                                1.00000000     
     25        1      47      250    10.0000000                                                1.00000000     
     26        1      48      250    10.0000000                                                1.00000000     
     27        1      49      250    10.0000000                                                1.00000000     
     28        1      50      250    10.0000000                                                1.00000000     
     29        1      51      250    10.0000000                                                1.00000000     
     30        1      52      250    10.0000000                                                1.00000000     
     31        1      53      250    10.0000000                                                1.00000000     
 -------------------------------------------------------------------------------------------------------------


 UBDSV1 SAVING           STO-SS ON UNIT   1020 AT TIME STEP      1, STRESS PERIOD      1
 UBDSV1 SAVING           STO-SY ON UNIT   1020 AT TIME STEP      1, STRESS PERIOD      1
 UBDSV1 SAVING     FLOW-JA-FACE ON UNIT   1020 AT TIME STEP      1, STRESS PERIOD      1
 UBDSV06 SAVING       DATA-SPDIS IN MODEL FLOW             PACKAGE NPF             CONNECTED TO MODEL FLOW             PACKAGE NPF              ON UNIT   1020 AT TIME STEP      1, STRESS PERIOD      1
 UBDSV06 SAVING              WEL IN MODEL FLOW             PACKAGE FLOW            CONNECTED TO MODEL FLOW             PACKAGE WEL              ON UNIT   1020 AT TIME STEP      1, STRESS PERIOD      1
 UBDSV06 SAVING              RIV IN MODEL FLOW             PACKAGE FLOW            CONNECTED TO MODEL FLOW             PACKAGE RIV              ON UNIT   1020 AT TIME STEP      1, STRESS PERIOD      1
 UBDSV06 SAVING             RCHA IN MODEL FLOW             PACKAGE FLOW            CONNECTED TO MODEL FLOW             PACKAGE RCH              ON UNIT   1020 AT TIME STEP      1, STRESS PERIOD      1
 UBDSV06 SAVING            EVTA  IN MODEL FLOW             PACKAGE FLOW            CONNECTED TO MODEL FLOW             PACKAGE EVT              ON UNIT   1020 AT TIME STEP      1, STRESS PERIOD      1
 UBDSV06 SAVING              CHD IN MODEL FLOW             PACKAGE FLOW            CONNECTED TO MODEL FLOW             PACKAGE CHD              ON UNIT   1020 AT TIME STEP      1, STRESS PERIOD      1

    CALCULATED INTERCELL FLOW FOR PERIOD 1 STEP 1
(1,2,84): (1,3,84) 0.439228
(1,2,195): (1,2,196) -1.89933 (1,3,195) 1.85601
(1,2,196): (1,2,195) 1.89933 (1,2,197) -2.05549 (1,3,196) 0.112142
(1,2,197): (1,2,196) 2.05549 (1,3,197) -2.10027
(1,2,201): (1,3,201) -5.459602E-02
(1,3,83): (1,3,84) -4.97929 (1,4,83) 5.41752
(1,3,84): (1,2,84) -0.439228 (1,3,83) 4.97929 (1,4,84) -4.10132
(1,3,89): (1,3,90) -14.9644 (1,4,89) 15.4193
(1,3,90): (1,3,89) 14.9644 (1,3,91) -19.7136 (1,4,90) 5.20593
(1,3,91): (1,3,90) 19.7136 (1,3,92) -21.2003 (1,4,91) 1.94605
(1,3,92): (1,3,91) 21.2003 (1,3,93) -21.4103 (1,4,92) 0.673874
(1,3,93): (1,3,92) 21.4103 (1,3,94) -20.9147 (1,4,93) -2.942617E-02
(1,3,94): (1,3,93) 20.9147 (1,3,95) -19.7406 (1,4,94) -0.705231
(1,3,95): (1,3,94) 19.7406 (1,3,96) -17.4431 (1,4,95) -1.82612
(1,3,96): (1,3,95) 17.4431 (1,3,97) -12.5181 (1,4,96) -4.45205
(1,3,97): (1,3,96) 12.5181 (1,4,97) -12.0452
(1,3,99): (1,4,99) 0.476149
(1,3,194): (1,3,195) -3.33147 (1,4,194) 3.29053
(1,3,195): (1,2,195) -1.85601 (1,3,194) 3.33147 (1,3,196) -3.39735 (1,4,195) 1.87947
(1,3,196): (1,2,196) -0.112142 (1,3,195) 3.39735 (1,3,197) -4.02528 (1,4,196) 0.696245
(1,3,197): (1,2,197) 2.10027 (1,3,196) 4.02528 (1,3,198) -5.93063 (1,4,197) -0.239832
(1,3,198): (1,3,197) 5.93063 (1,3,199) -5.92101 (1,4,198) -5.754518E-02
(1,3,199): (1,3,198) 5.92101 (1,3,200) -5.84614 (1,4,199) -0.125025
(1,3,200): (1,3,199) 5.84614 (1,3,201) -5.58466 (1,4,200) -0.313420
(1,3,201): (1,2,201) 5.459602E-02 (1,3,200) 5.58466 (1,3,202) -5.01533 (1,4,201) -0.677514
(1,3,202): (1,3,201) 5.01533 (1,3,203) -3.61207 (1,4,202) -1.45862
(1,3,203): (1,3,202) 3.61207 (1,4,203) -3.66996
(1,4,83): (1,3,83) -5.41752 (1,4,84) -16.0024 (1,5,83) 21.8573
(1,4,84): (1,3,84) 4.10132 (1,4,83) 16.0024 (1,4,85) -27.1737 (1,5,84) 7.50840
(1,4,85): (1,4,84) 27.1737 (1,4,86) -30.4204 (1,5,85) 3.68684
(1,4,86): (1,4,85) 30.4204 (1,4,87) -32.1625 (1,5,86) 2.18897
(1,4,87): (1,4,86) 32.1625 (1,4,88) -33.6222 (1,5,87) 1.90795
(1,4,88): (1,4,87) 33.6222 (1,4,89) -36.0575 (1,5,88) 2.88687
(1,4,89): (1,3,89) -15.4193 (1,4,88) 36.0575 (1,4,90) -26.8666 (1,5,89) 6.68846
(1,4,90): (1,3,90) -5.20593 (1,4,89) 26.8666 (1,4,91) -25.3313 (1,5,90) 4.13193
(1,4,91): (1,3,91) -1.94605 (1,4,90) 25.3313 (1,4,92) -24.9587 (1,5,91) 2.03707
(1,4,92): (1,3,92) -0.673874 (1,4,91) 24.9587 (1,4,93) -24.5360 (1,5,92) 0.716757
(1,4,93): (1,3,93) 2.942617E-02 (1,4,92) 24.5360 (1,4,94) -23.8735 (1,5,93) -0.223825
(1,4,94): (1,3,94) 0.705231 (1,4,93) 23.8735 (1,4,95) -22.9775 (1,5,94) -1.13042
(1,4,95): (1,3,95) 1.82612 (1,4,94) 22.9775 (1,4,96) -22.0275 (1,5,95) -2.30327
(1,4,96): (1,3,96) 4.45205 (1,4,95) 22.0275 (1,4,97) -22.0045 (1,5,96) -4.00183
(1,4,97): (1,3,97) 12.0452 (1,4,96) 22.0045 (1,4,98) -27.6818 (1,5,97) -5.89292
(1,4,98): (1,4,97) 27.6818 (1,4,99) -23.9320 (1,5,98) -3.27475
(1,4,99): (1,3,99) -0.476149 (1,4,98) 23.9320 (1,4,100) -19.6061 (1,5,99) -3.37409
(1,4,100): (1,4,99) 19.6061 (1,4,101) -13.2520 (1,5,100) -5.87875
(1,4,101): (1,4,100) 13.2520 (1,5,101) -12.7778
(1,4,191): (1,4,192) -2.09531 (1,5,191) 2.06195
(1,4,192): (1,4,191) 2.09531 (1,4,193) -3.82373 (1,5,192) 1.69396
(1,4,193): (1,4,192) 3.82373 (1,4,194) -5.45315 (1,5,193) 1.59298
(1,4,194): (1,3,194) -3.29053 (1,4,193) 5.45315 (1,4,195) -4.37186 (1,5,194) 2.17250
(1,4,195): (1,3,195) -1.87947 (1,4,194) 4.37186 (1,4,196) -4.23322 (1,5,195) 1.70256
(1,4,196): (1,3,196) -0.696245 (1,4,195) 4.23322 (1,4,197) -4.59601 (1,5,196) 1.01920
(1,4,197): (1,3,197) 0.239832 (1,4,196) 4.59601 (1,4,198) -5.30665 (1,5,197) 0.427716
(1,4,198): (1,3,198) 5.754518E-02 (1,4,197) 5.30665 (1,4,199) -5.56885 (1,5,198) 0.157897
(1,4,199): (1,3,199) 0.125025 (1,4,198) 5.56885 (1,4,200) -5.64598 (1,5,199) -9.744456E-02
(1,4,200): (1,3,200) 0.313420 (1,4,199) 5.64598 (1,4,201) -5.60039 (1,5,200) -0.410674
(1,4,201): (1,3,201) 0.677514 (1,4,200) 5.60039 (1,4,202) -5.49809 (1,5,201) -0.833707
(1,4,202): (1,3,202) 1.45862 (1,4,201) 5.49809 (1,4,203) -5.59517 (1,5,202) -1.41731
(1,4,203): (1,3,203) 3.66996 (1,4,202) 5.59517 (1,4,204) -7.24511 (1,5,203) -2.07774
(1,4,204): (1,4,203) 7.24511 (1,4,205) -5.78389 (1,5,204) -1.52283
(1,4,205): (1,4,204) 5.78389 (1,4,206) -3.85486 (1,5,205) -1.99349
(1,4,206): (1,4,205) 3.85486 (1,5,206) -3.92130
(1,5,82): (1,5,83) -34.4098 (1,6,82) 34.8432
(1,5,83): (1,4,83) -21.8573 (1,5,82) 34.4098 (1,5,84) -32.1797 (1,6,83) 20.0666
(1,5,84): (1,4,84) -7.50840 (1,5,83) 32.1797 (1,5,85) -34.4780 (1,6,84) 10.2507
(1,5,85): (1,4,85) -3.68684 (1,5,84) 34.4780 (1,5,86) -35.7976 (1,6,85) 5.45728
(1,5,86): (1,4,86) -2.18897 (1,5,85) 35.7976 (1,5,87) -36.3703 (1,6,86) 3.21224
(1,5,87): (1,4,87) -1.90795 (1,5,86) 36.3703 (1,5,88) -36.4220 (1,6,87) 2.41251
(1,5,88): (1,4,88) -2.88687 (1,5,87) 36.4220 (1,5,89) -35.6811 (1,6,88) 2.60233
(1,5,89): (1,4,89) -6.68846 (1,5,88) 35.6811 (1,5,90) -31.9042 (1,6,89) 3.37064
(1,5,90): (1,4,90) -4.13193 (1,5,89) 31.9042 (1,5,91) -29.7571 (1,6,90) 2.44547
(1,5,91): (1,4,91) -2.03707 (1,5,90) 29.7571 (1,5,92) -28.5060 (1,6,91) 1.24823
(1,5,92): (1,4,92) -0.716757 (1,5,91) 28.5060 (1,5,93) -27.5601 (1,6,92) 0.234933
(1,5,93): (1,4,93) 0.223825 (1,5,92) 27.5601 (1,5,94) -26.6988 (1,6,93) -0.618372
(1,5,94): (1,4,94) 1.13042 (1,5,93) 26.6988 (1,5,95) -25.9105 (1,6,94) -1.44896
(1,5,95): (1,4,95) 2.30327 (1,5,94) 25.9105 (1,5,96) -25.3621 (1,6,95) -2.37934
(1,5,96): (1,4,96) 4.00183 (1,5,95) 25.3621 (1,5,97) -25.4671 (1,6,96) -3.42255
(1,5,97): (1,4,97) 5.89292 (1,5,96) 25.4671 (1,5,98) -26.6085 (1,6,97) -4.27607
(1,5,98): (1,4,98) 3.27475 (1,5,97) 26.6085 (1,5,99) -25.2366 (1,6,98) -4.17046
(1,5,99): (1,4,99) 3.37409 (1,5,98) 25.2366 (1,5,100) -23.0949 (1,6,99) -5.03969
(1,5,100): (1,4,100) 5.87875 (1,5,99) 23.0949 (1,5,101) -20.9747 (1,6,100) -7.52429
(1,5,101): (1,4,101) 12.7778 (1,5,100) 20.9747 (1,5,102) -20.8732 (1,6,101) -12.4050
(1,5,102): (1,5,101) 20.8732 (1,6,102) -20.4025
(1,5,191): (1,4,191) -2.06195 (1,5,192) -2.25756 (1,6,191) 4.28751
(1,5,192): (1,4,192) -1.69396 (1,5,191) 2.25756 (1,5,193) -3.56293 (1,6,192) 2.96591
(1,5,193): (1,4,193) -1.59298 (1,5,192) 3.56293 (1,5,194) -4.40601 (1,6,193) 2.40040
(1,5,194): (1,4,194) -2.17250 (1,5,193) 4.40601 (1,5,195) -4.44360 (1,6,194) 2.17434
(1,5,195): (1,4,195) -1.70256 (1,5,194) 4.44360 (1,5,196) -4.53549 (1,6,195) 1.75675
(1,5,196): (1,4,196) -1.01920 (1,5,195) 4.53549 (1,5,197) -4.79767 (1,6,196) 1.24154
(1,5,197): (1,4,197) -0.427716 (1,5,196) 4.79767 (1,5,198) -5.16545 (1,6,197) 0.752728
(1,5,198): (1,4,198) -0.157897 (1,5,197) 5.16545 (1,5,199) -5.41851 (1,6,198) 0.364840
(1,5,199): (1,4,199) 9.744456E-02 (1,5,198) 5.41851 (1,5,200) -5.57086 (1,6,199) 5.563237E-03
(1,5,200): (1,4,200) 0.410674 (1,5,199) 5.57086 (1,5,201) -5.65912 (1,6,200) -0.374183
(1,5,201): (1,4,201) 0.833707 (1,5,200) 5.65912 (1,5,202) -5.74322 (1,6,201) -0.803648
(1,5,202): (1,4,202) 1.41731 (1,5,201) 5.74322 (1,5,203) -5.93389 (1,6,202) -1.28316
(1,5,203): (1,4,203) 2.07774 (1,5,202) 5.93389 (1,5,204) -6.33584 (1,6,203) -1.73501
(1,5,204): (1,4,204) 1.52283 (1,5,203) 6.33584 (1,5,205) -5.96945 (1,6,204) -1.95148
(1,5,205): (1,4,205) 1.99349 (1,5,204) 5.96945 (1,5,206) -5.57682 (1,6,205) -2.45110
(1,5,206): (1,4,206) 3.92130 (1,5,205) 5.57682 (1,5,207) -6.38803 (1,6,206) -3.17772
(1,5,207): (1,5,206) 6.38803 (1,5,208) -3.57134 (1,6,207) -2.88775
(1,5,208): (1,5,207) 3.57134 (1,6,208) -3.64402
(1,6,79): (1,6,80) -41.4597 (1,7,79) 41.8846
(1,6,80): (1,6,79) 41.4597 (1,6,81) -57.8016 (1,7,80) 16.7682
(1,6,81): (1,6,80) 57.8016 (1,6,82) -68.8478 (1,7,81) 11.4746
(1,6,82): (1,5,82) -34.8432 (1,6,81) 68.8478 (1,6,83) -51.6430 (1,7,82) 18.0949
(1,6,83): (1,5,83) -20.0666 (1,6,82) 51.6430 (1,6,84) -44.9204 (1,7,83) 13.7966
(1,6,84): (1,5,84) -10.2507 (1,6,83) 44.9204 (1,6,85) -42.7123 (1,7,84) 8.49267
(1,6,85): (1,5,85) -5.45728 (1,6,84) 42.7123 (1,6,86) -41.6158 (1,7,85) 4.80959
(1,6,86): (1,5,86) -3.21224 (1,6,85) 41.6158 (1,6,87) -40.6262 (1,7,86) 2.67177
(1,6,87): (1,5,87) -2.41251 (1,6,86) 40.6262 (1,6,88) -39.4023 (1,7,87) 1.64018
(1,6,88): (1,5,88) -2.60233 (1,6,87) 39.4023 (1,6,89) -37.6603 (1,7,88) 1.31490
(1,6,89): (1,5,89) -3.37064 (1,6,88) 37.6603 (1,6,90) -35.0761 (1,7,89) 1.24335
(1,6,90): (1,5,90) -2.44547 (1,6,89) 35.0761 (1,6,91) -32.9096 (1,7,90) 0.737595
(1,6,91): (1,5,91) -1.24823 (1,6,90) 32.9096 (1,6,92) -31.2537 (1,7,91) 5.262137E-02
(1,6,92): (1,5,92) -0.234933 (1,6,91) 31.2537 (1,6,93) -29.9407 (1,7,92) -0.615817
(1,6,93): (1,5,93) 0.618372 (1,6,92) 29.9407 (1,6,94) -28.8572 (1,7,93) -1.23699
(1,6,94): (1,5,94) 1.44896 (1,6,93) 28.8572 (1,6,95) -27.9844 (1,7,94) -1.85399
(1,6,95): (1,5,95) 2.37934 (1,6,94) 27.9844 (1,6,96) -27.3842 (1,7,95) -2.50919
(1,6,96): (1,5,96) 3.42255 (1,6,95) 27.3842 (1,6,97) -27.1434 (1,7,96) -3.19092
(1,6,97): (1,5,97) 4.27607 (1,6,96) 27.1434 (1,6,98) -27.1420 (1,7,97) -3.80367
(1,6,98): (1,5,98) 4.17046 (1,6,97) 27.1420 (1,6,99) -26.5473 (1,7,98) -4.29053
(1,6,99): (1,5,99) 5.03969 (1,6,98) 26.5473 (1,6,100) -25.8910 (1,7,99) -5.22131
(1,6,100): (1,5,100) 7.52429 (1,6,99) 25.8910 (1,6,101) -26.0902 (1,7,100) -6.85103
(1,6,101): (1,5,101) 12.4050 (1,6,100) 26.0902 (1,6,102) -29.0161 (1,7,101) -9.00738
(1,6,102): (1,5,102) 20.4025 (1,6,101) 29.0161 (1,6,103) -38.6931 (1,7,102) -10.2558
(1,6,103): (1,6,102) 38.6931 (1,6,104) -33.2192 (1,7,103) -5.00951
(1,6,104): (1,6,103) 33.2192 (1,6,105) -28.9094 (1,7,104) -3.85035
(1,6,105): (1,6,104) 28.9094 (1,6,106) -23.8925 (1,7,105) -4.56208
(1,6,106): (1,6,105) 23.8925 (1,6,107) -16.0019 (1,7,106) -7.43972
(1,6,107): (1,6,106) 16.0019 (1,7,107) -15.5545
(1,6,190): (1,6,191) -3.64078 (1,7,190) 3.61497
(1,6,191): (1,5,191) -4.28751 (1,6,190) 3.64078 (1,6,192) -3.37588 (1,7,191) 3.99414
(1,6,192): (1,5,192) -2.96591 (1,6,191) 3.37588 (1,6,193) -3.82350 (1,7,192) 3.38299
(1,6,193): (1,5,193) -2.40040 (1,6,192) 3.82350 (1,6,194) -4.26788 (1,7,193) 2.81192
(1,6,194): (1,5,194) -2.17434 (1,6,193) 4.26788 (1,6,195) -4.49186 (1,7,194) 2.36319
(1,6,195): (1,5,195) -1.75675 (1,6,194) 4.49186 (1,6,196) -4.67776 (1,7,195) 1.90547
(1,6,196): (1,5,196) -1.24154 (1,6,195) 4.67776 (1,6,197) -4.90491 (1,7,196) 1.42929
(1,6,197): (1,5,197) -0.752728 (1,6,196) 4.90491 (1,6,198) -5.16237 (1,7,197) 0.967933
(1,6,198): (1,5,198) -0.364840 (1,6,197) 5.16237 (1,6,199) -5.38682 (1,7,198) 0.543812
(1,6,199): (1,5,199) -5.563237E-03 (1,6,198) 5.38682 (1,6,200) -5.56715 (1,7,199) 0.137165
(1,6,200): (1,5,200) 0.374183 (1,6,199) 5.56715 (1,6,201) -5.71718 (1,7,200) -0.275838
(1,6,201): (1,5,201) 0.803648 (1,6,200) 5.71718 (1,6,202) -5.86447 (1,7,201) -0.710822
(1,6,202): (1,5,202) 1.28316 (1,6,201) 5.86447 (1,6,203) -6.03738 (1,7,202) -1.16754
(1,6,203): (1,5,203) 1.73501 (1,6,202) 6.03738 (1,6,204) -6.20865 (1,7,203) -1.62389
(1,6,204): (1,5,204) 1.95148 (1,6,203) 6.20865 (1,6,205) -6.15691 (1,7,204) -2.06627
(1,6,205): (1,5,205) 2.45110 (1,6,204) 6.15691 (1,6,206) -6.02373 (1,7,205) -2.65019
(1,6,206): (1,5,206) 3.17772 (1,6,205) 6.02373 (1,6,207) -5.82125 (1,7,206) -3.44920
[...]
   22124    (1,89,124)           -0.31276913    
   22125    (1,89,125)           -0.31225203    
   22126    (1,89,126)           -0.31175975    
   22127    (1,89,127)           -0.31119651    
   22320    (1,90,70)            -0.38070358    
   22325    (1,90,75)            -0.37503848    
   22326    (1,90,76)            -0.37439104    
   22327    (1,90,77)            -0.37365120    
   22328    (1,90,78)            -0.37252854    
   22329    (1,90,79)            -0.37120214    
   22330    (1,90,80)            -0.37016546    
   22331    (1,90,81)            -0.36912536    
   22332    (1,90,82)            -0.36812289    
   22333    (1,90,83)            -0.36710126    
   22334    (1,90,84)            -0.36602339    
   22335    (1,90,85)            -0.36485648    
   22336    (1,90,86)            -0.36354297    
   22337    (1,90,87)            -0.36198827    
   22338    (1,90,88)            -0.36030630    
   22339    (1,90,89)            -0.35850799    
   22340    (1,90,90)            -0.35658400    
   22341    (1,90,91)            -0.35452924    
   22342    (1,90,92)            -0.35238158    
   22343    (1,90,93)            -0.35039317    
   22344    (1,90,94)            -0.34848507    
   22345    (1,90,95)            -0.34664962    
   22346    (1,90,96)            -0.34485290    
   22347    (1,90,97)            -0.34307500    
   22348    (1,90,98)            -0.34131942    
   22349    (1,90,99)            -0.33960449    
   22350    (1,90,100)           -0.33793393    
   22351    (1,90,101)           -0.33630730    
   22352    (1,90,102)           -0.33472796    
   22353    (1,90,103)           -0.33320239    
   22354    (1,90,104)           -0.33173379    
   22355    (1,90,105)           -0.33032365    
   22356    (1,90,106)           -0.32897386    
   22357    (1,90,107)           -0.32768642    
   22358    (1,90,108)           -0.32646126    
   22359    (1,90,109)           -0.32529587    
   22360    (1,90,110)           -0.32418627    
   22361    (1,90,111)           -0.32312817    
   22362    (1,90,112)           -0.32211792    
   22363    (1,90,113)           -0.32115302    
   22364    (1,90,114)           -0.32023209    
   22365    (1,90,115)           -0.31935465    
   22366    (1,90,116)           -0.31852059    
   22367    (1,90,117)           -0.31772978    
   22368    (1,90,118)           -0.31698171    
   22369    (1,90,119)           -0.31627548    
   22370    (1,90,120)           -0.31560997    
   22371    (1,90,121)           -0.31498413    
   22372    (1,90,122)           -0.31439751    
   22373    (1,90,123)           -0.31385098    
   22374    (1,90,124)           -0.31334803    
   22375    (1,90,125)           -0.31289882    
   22376    (1,90,126)           -0.31254595    
   22576    (1,91,76)            -0.37414640    
   22577    (1,91,77)            -0.37389855    
   22579    (1,91,79)            -0.37051674    
   22580    (1,91,80)            -0.36982305    
   22581    (1,91,81)            -0.36877270    
   22582    (1,91,82)            -0.36789267    
   22583    (1,91,83)            -0.36697839    
   22584    (1,91,84)            -0.36599963    
   22585    (1,91,85)            -0.36494865    
   22586    (1,91,86)            -0.36375668    
   22587    (1,91,87)            -0.36202791    
   22588    (1,91,88)            -0.36027947    
   22589    (1,91,89)            -0.35843986    
   22590    (1,91,90)            -0.35646155    
   22591    (1,91,91)            -0.35428371    
   22592    (1,91,92)            -0.35177666    
   22593    (1,91,93)            -0.34987253    
   22594    (1,91,94)            -0.34800891    
   22595    (1,91,95)            -0.34626557    
   22596    (1,91,96)            -0.34454671    
   22597    (1,91,97)            -0.34281191    
   22598    (1,91,98)            -0.34107515    
   22599    (1,91,99)            -0.33939306    
   22600    (1,91,100)           -0.33775838    
   22601    (1,91,101)           -0.33616009    
   22602    (1,91,102)           -0.33460236    
   22603    (1,91,103)           -0.33310038    
   22604    (1,91,104)           -0.33165640    
   22605    (1,91,105)           -0.33026962    
   22606    (1,91,106)           -0.32894296    
   22607    (1,91,107)           -0.32768192    
   22608    (1,91,108)           -0.32648744    
   22609    (1,91,109)           -0.32535568    
   22610    (1,91,110)           -0.32428045    
   22611    (1,91,111)           -0.32325557    
   22612    (1,91,112)           -0.32227626    
   22613    (1,91,113)           -0.32133985    
   22614    (1,91,114)           -0.32044564    
   22615    (1,91,115)           -0.31959431    
   22616    (1,91,116)           -0.31878700    
   22617    (1,91,117)           -0.31802460    
   22618    (1,91,118)           -0.31730716    
   22619    (1,91,119)           -0.31663398    
   22620    (1,91,120)           -0.31600384    
   22621    (1,91,121)           -0.31541554    
   22622    (1,91,122)           -0.31486843    
   22623    (1,91,123)           -0.31436321    
   22624    (1,91,124)           -0.31390216    
   22625    (1,91,125)           -0.31347940    
   22626    (1,91,126)           -0.31300564    
   22831    (1,92,81)            -0.36822923    
   22832    (1,92,82)            -0.36767771    
   22833    (1,92,83)            -0.36689840    
   22834    (1,92,84)            -0.36602235    
   22835    (1,92,85)            -0.36514957    
   22836    (1,92,86)            -0.36445850    
   22842    (1,92,92)            -0.35052359    
   22843    (1,92,93)            -0.34927116    
   22844    (1,92,94)            -0.34738072    
   22845    (1,92,95)            -0.34582699    
   22846    (1,92,96)            -0.34422746    
   22847    (1,92,97)            -0.34252551    
   22848    (1,92,98)            -0.34075773    
   22849    (1,92,99)            -0.33912025    
   22850    (1,92,100)           -0.33753610    
   22851    (1,92,101)           -0.33596592    
   22852    (1,92,102)           -0.33441882    
   22853    (1,92,103)           -0.33294146    
   22854    (1,92,104)           -0.33152565    
   22855    (1,92,105)           -0.33016166    
   22856    (1,92,106)           -0.32885466    
   22857    (1,92,107)           -0.32762045    
   22858    (1,92,108)           -0.32646138    
   22859    (1,92,109)           -0.32537004    
   22860    (1,92,110)           -0.32433596    
   22861    (1,92,111)           -0.32334970    
   22862    (1,92,112)           -0.32240472    
   22863    (1,92,113)           -0.32149818    
   22864    (1,92,114)           -0.32063075    
   22865    (1,92,115)           -0.31980507    
   22866    (1,92,116)           -0.31902434    
   22867    (1,92,117)           -0.31829099    
   22868    (1,92,118)           -0.31760568    
   22869    (1,92,119)           -0.31696757    
   22870    (1,92,120)           -0.31637497    
   22871    (1,92,121)           -0.31582596    
   22872    (1,92,122)           -0.31531889    
   22873    (1,92,123)           -0.31485413    
   22874    (1,92,124)           -0.31444254    
   22875    (1,92,125)           -0.31413918    
   23094    (1,93,94)            -0.34639402    
   23095    (1,93,95)            -0.34540848    
   23096    (1,93,96)            -0.34398174    
   23097    (1,93,97)            -0.34227815    
   23098    (1,93,98)            -0.34029381    
   23099    (1,93,99)            -0.33878075    
   23100    (1,93,100)           -0.33728838    
   23101    (1,93,101)           -0.33574057    
   23102    (1,93,102)           -0.33416222    
   23103    (1,93,103)           -0.33272052    
   23104    (1,93,104)           -0.33134482    
   23105    (1,93,105)           -0.33000073    
   23106    (1,93,106)           -0.32869975    
   23107    (1,93,107)           -0.32749127    
   23108    (1,93,108)           -0.32637563    
   23109    (1,93,109)           -0.32533551    
   23110    (1,93,110)           -0.32435238    
   23111    (1,93,111)           -0.32341177    
   23112    (1,93,112)           -0.32250462    
   23113    (1,93,113)           -0.32162805    
   23114    (1,93,114)           -0.32078544    
   23115    (1,93,115)           -0.31998290    
   23116    (1,93,116)           -0.31922694    
   23117    (1,93,117)           -0.31852256    
   23118    (1,93,118)           -0.31787088    
   23119    (1,93,119)           -0.31727026    
   23120    (1,93,120)           -0.31671796    
   23121    (1,93,121)           -0.31621090    
   23122    (1,93,122)           -0.31574467    
   23123    (1,93,123)           -0.31531065    
   23124    (1,93,124)           -0.31489366    
   23125    (1,93,125)           -0.31451215    
   23348    (1,94,98)            -0.33934897    
   23349    (1,94,99)            -0.33840834    
   23350    (1,94,100)           -0.33708285    
   23351    (1,94,101)           -0.33553517    
   23352    (1,94,102)           -0.33376590    
   23353    (1,94,103)           -0.33243206    
   23354    (1,94,104)           -0.33113211    
   23355    (1,94,105)           -0.32979873    
   23356    (1,94,106)           -0.32845719    
   23357    (1,94,107)           -0.32727526    
   23358    (1,94,108)           -0.32622053    
   23359    (1,94,109)           -0.32525012    
   23360    (1,94,110)           -0.32433251    
   23361    (1,94,111)           -0.32344700    
   23362    (1,94,112)           -0.32258125    
   23363    (1,94,113)           -0.32173204    
   23364    (1,94,114)           -0.32090892    
   23365    (1,94,115)           -0.32012365    
   23366    (1,94,116)           -0.31938797    
   23367    (1,94,117)           -0.31871188    
   23368    (1,94,118)           -0.31809601    
   23369    (1,94,119)           -0.31753621    
   23370    (1,94,120)           -0.31702805    
   23371    (1,94,121)           -0.31656834    
   23372    (1,94,122)           -0.31615278    
   23373    (1,94,123)           -0.31576621    
   23374    (1,94,124)           -0.31532598    
   23602    (1,95,102)           -0.33293467    
   23603    (1,95,103)           -0.33210730    
   23604    (1,95,104)           -0.33095009    
   23605    (1,95,105)           -0.32960441    
   23606    (1,95,106)           -0.32805940    
   23607    (1,95,107)           -0.32693718    
   23608    (1,95,108)           -0.32598584    
   23609    (1,95,109)           -0.32511618    
   23610    (1,95,110)           -0.32428461    
   23611    (1,95,111)           -0.32346686    
   23612    (1,95,112)           -0.32264642    
   23613    (1,95,113)           -0.32181596    
   23614    (1,95,114)           -0.32100137    
   23615    (1,95,115)           -0.32022230    
   23616    (1,95,116)           -0.31949727    
   23617    (1,95,117)           -0.31884915    
   23618    (1,95,118)           -0.31827356    
   23619    (1,95,119)           -0.31775950    
   23620    (1,95,120)           -0.31729932    
   23621    (1,95,121)           -0.31689213    
   23622    (1,95,122)           -0.31654368    
   23623    (1,95,123)           -0.31628992    
   23856    (1,96,106)           -0.32724463    
   23857    (1,96,107)           -0.32643285    
   23858    (1,96,108)           -0.32567281    
   23859    (1,96,109)           -0.32494661    
   23860    (1,96,110)           -0.32422504    
   23861    (1,96,111)           -0.32349180    
   23862    (1,96,112)           -0.32272479    
   23863    (1,96,113)           -0.32188832    
   23864    (1,96,114)           -0.32106353    
   23865    (1,96,115)           -0.32027279    
   23866    (1,96,116)           -0.31953578    
   23867    (1,96,117)           -0.31892007    
   23868    (1,96,118)           -0.31839595    
   23869    (1,96,119)           -0.31793568    
   23870    (1,96,120)           -0.31752492    
   23871    (1,96,121)           -0.31716507    
   23872    (1,96,122)           -0.31684822    
   23873    (1,96,123)           -0.31656741    
   24107    (1,97,107)           -0.32588028    
   24108    (1,97,108)           -0.32532770    
   24109    (1,97,109)           -0.32477317    
   24110    (1,97,110)           -0.32417759    
   24111    (1,97,111)           -0.32355119    
   24112    (1,97,112)           -0.32287413    
   24113    (1,97,113)           -0.32195198    
   24114    (1,97,114)           -0.32109560    
   24115    (1,97,115)           -0.32027413    
   24116    (1,97,116)           -0.31945760    
   24117    (1,97,117)           -0.31890375    
   24118    (1,97,118)           -0.31845894    
   24119    (1,97,119)           -0.31806722    
   24120    (1,97,120)           -0.31770495    
   24121    (1,97,121)           -0.31740102    
   24122    (1,97,122)           -0.31712342    
   24358    (1,98,108)           -0.32498464    
   24359    (1,98,109)           -0.32463996    
   24360    (1,98,110)           -0.32415998    
   24361    (1,98,111)           -0.32366049    
   24362    (1,98,112)           -0.32326855    
   24366    (1,98,116)           -0.31911962    
   24367    (1,98,117)           -0.31878077    
   24368    (1,98,118)           -0.31847149    
   24369    (1,98,119)           -0.31817260    
   24370    (1,98,120)           -0.31783030    
   24371    (1,98,121)           -0.31761511    
   24617    (1,99,117)           -0.31862836    
   24618    (1,99,118)           -0.31847464    
   24619    (1,99,119)           -0.31832370    
 -----------------------------------------------




 CHD PACKAGE (CHD) FLOW RATES   PERIOD      1   STEP        1
 ----------------------------------------------------------------------------------------
   NUMBER   CELLID                    RATE       NAME                                    
 ----------------------------------------------------------------------------------------
     1      (1,23,250)           -64.680045                                              
     2      (1,24,250)           -50.849514                                              
     3      (1,25,250)           -45.038981                                              
     4      (1,26,250)           -42.588727                                              
     5      (1,27,250)           -41.907731                                              
     6      (1,28,250)           -42.382731                                              
     7      (1,29,250)           -43.738868                                              
     8      (1,30,250)           -45.810882                                              
     9      (1,31,250)           -48.447499                                              
     10     (1,32,250)           -51.485868                                              
     11     (1,33,250)           -54.666418                                              
     12     (1,34,250)           -50.942279                                              
     13     (1,35,250)           -47.249755                                              
     14     (1,36,250)           -45.139152                                              
     15     (1,37,250)           -42.797760                                              
     16     (1,38,250)           -39.542778                                              
     17     (1,39,250)           -35.521389                                              
     18     (1,40,250)           -31.164797                                              
     19     (1,41,250)           -26.803913                                              
     20     (1,42,250)           -22.619911                                              
     21     (1,43,250)           -18.689980                                              
     22     (1,44,250)           -15.040904                                              
     23     (1,45,250)           -11.706808                                              
     24     (1,46,250)           -8.7782926                                              
     25     (1,47,250)           -6.3652570                                              
     26     (1,48,250)           -4.4306244                                              
     27     (1,49,250)           -3.0103345                                              
     28     (1,50,250)           -1.8498978                                              
     29     (1,51,250)           -0.72531586                                             
     30     (1,52,250)           -0.35735909                                             
     31     (1,53,250)            0.0000000                                              
 ----------------------------------------------------------------------------------------




 HEAD WILL BE SAVED ON UNIT 1021 AT END OF TIME STEP    1, STRESS PERIOD    1


  VOLUME BUDGET FOR ENTIRE MODEL AT END OF TIME STEP    1, STRESS PERIOD   1
  ---------------------------------------------------------------------------------------------------

     CUMULATIVE VOLUME      L**3       RATES FOR THIS TIME STEP      L**3/T          PACKAGE NAME    
     ------------------                 ------------------------                     ----------------

           IN:                                      IN:
           ---                                      ---
              STO-SS =         150.9376                STO-SS =         150.9376     STORAGE                          
              STO-SY =        1276.2519                STO-SY =        1276.2519     STORAGE                          
                 WEL =           0.0000                   WEL =           0.0000     WEL                              
                 RIV =        6387.8069                   RIV =        6387.8069     RIV                              
                RCHA =        1188.2400                  RCHA =        1188.2400     RCH                              
                EVTA =           0.0000                  EVTA =           0.0000     EVT                              
                 CHD =           0.0000                   CHD =           0.0000     CHD                              

            TOTAL IN =        9003.2364              TOTAL IN =        9003.2364

          OUT:                                     OUT:
          ----                                     ----
              STO-SS =          99.3993                STO-SS =          99.3993     STORAGE                          
              STO-SY =         865.0169                STO-SY =         865.0169     STORAGE                          
                 WEL =         936.2600                   WEL =         936.2600     WEL                              
                 RIV =        1274.1571                   RIV =        1274.1571     RIV                              
                RCHA =           0.0000                  RCHA =           0.0000     RCH                              
                EVTA =        4848.9780                  EVTA =        4848.9780     EVT                              
                 CHD =         944.3338                   CHD =         944.3338     CHD                              

           TOTAL OUT =        8968.1450             TOTAL OUT =        8968.1450

            IN - OUT =          35.0913              IN - OUT =          35.0913

 PERCENT DISCREPANCY =           0.39     PERCENT DISCREPANCY =           0.39




         TIME SUMMARY AT END OF TIME STEP    1 IN STRESS PERIOD    1
                    SECONDS     MINUTES      HOURS       DAYS        YEARS
                    -----------------------------------------------------------
   TIME STEP LENGTH  86400.      1440.0      24.000      1.0000     2.73785E-03
 STRESS PERIOD TIME  86400.      1440.0      24.000      1.0000     2.73785E-03
         TOTAL TIME  86400.      1440.0      24.000      1.0000     2.73785E-03


end timestep

